<?xml version="1.0" encoding="UTF-8"?>

<!-- generated on 2022/9/12 16:08:33 by Netedit Version 0.32.0
<?xml version="1.0" encoding="UTF-8"?>

<configuration xmlns:xsi="http://www.w3.org/2001/XMLSchema-instance" xsi:noNamespaceSchemaLocation="http://sumo.dlr.de/xsd/netconvertConfiguration.xsd">

    <input>
        <sumo-net-file value="D:\python\2022\sumo_test\data\txmap.net.xml"/>
    </input>

    <output>
        <output-file value="D:\python\2022\sumo_test\data\txmap.net.xml"/>
    </output>

    <processing>
        <no-turnarounds value="true"/>
        <offset.disable-normalization value="true"/>
        <lefthand value="false"/>
        <junctions.corner-detail value="5"/>
        <rectangular-lane-cut value="false"/>
        <walkingareas value="false"/>
    </processing>

</configuration>
-->

<net version="0.27" junctionCornerDetail="5" xmlns:xsi="http://www.w3.org/2001/XMLSchema-instance" xsi:noNamespaceSchemaLocation="http://sumo.dlr.de/xsd/net_file.xsd">

    <location netOffset="-566542.46,-3270461.61" convBoundary="185.44,440.31,5653.29,5962.51" origBoundary="-98.312797,29.561795,-98.212002,29.639647" projParameter="+proj=utm +zone=14 +ellps=WGS84 +datum=WGS84 +units=m +no_defs"/>

    <type id="highway.bridleway" priority="1" numLanes="1" speed="2.78" allow="pedestrian" oneway="1" width="2.00"/>
    <type id="highway.bus_guideway" priority="1" numLanes="1" speed="27.78" allow="bus" oneway="1"/>
    <type id="highway.cycleway" priority="1" numLanes="1" speed="8.33" allow="bicycle" oneway="0" width="1.00"/>
    <type id="highway.footway" priority="1" numLanes="1" speed="2.78" allow="pedestrian" oneway="1" width="2.00"/>
    <type id="highway.ford" priority="1" numLanes="1" speed="2.78" allow="army" oneway="0"/>
    <type id="highway.living_street" priority="2" numLanes="1" speed="2.78" disallow="tram rail_urban rail rail_electric ship" oneway="0"/>
    <type id="highway.motorway" priority="14" numLanes="2" speed="39.44" allow="private emergency authority army vip passenger hov taxi bus coach delivery truck trailer motorcycle evehicle custom1 custom2" oneway="1"/>
    <type id="highway.motorway_link" priority="9" numLanes="1" speed="22.22" allow="private emergency authority army vip passenger hov taxi bus coach delivery truck trailer motorcycle evehicle custom1 custom2" oneway="1"/>
    <type id="highway.path" priority="1" numLanes="1" speed="2.78" allow="bicycle pedestrian" oneway="1" width="2.00"/>
    <type id="highway.pedestrian" priority="1" numLanes="1" speed="2.78" allow="pedestrian" oneway="1" width="2.00"/>
    <type id="highway.primary" priority="12" numLanes="2" speed="27.78" disallow="tram rail_urban rail rail_electric ship" oneway="0"/>
    <type id="highway.primary_link" priority="7" numLanes="1" speed="22.22" disallow="tram rail_urban rail rail_electric ship" oneway="0"/>
    <type id="highway.raceway" priority="15" numLanes="2" speed="83.33" allow="vip" oneway="0"/>
    <type id="highway.residential" priority="3" numLanes="1" speed="13.89" disallow="tram rail_urban rail rail_electric ship" oneway="0"/>
    <type id="highway.secondary" priority="11" numLanes="1" speed="27.78" disallow="tram rail_urban rail rail_electric ship" oneway="0"/>
    <type id="highway.secondary_link" priority="6" numLanes="1" speed="22.22" disallow="tram rail_urban rail rail_electric ship" oneway="0"/>
    <type id="highway.service" priority="1" numLanes="1" speed="5.56" allow="delivery bicycle pedestrian" oneway="0"/>
    <type id="highway.stairs" priority="1" numLanes="1" speed="1.39" allow="pedestrian" oneway="1" width="2.00"/>
    <type id="highway.step" priority="1" numLanes="1" speed="1.39" allow="pedestrian" oneway="1" width="2.00"/>
    <type id="highway.steps" priority="1" numLanes="1" speed="1.39" allow="pedestrian" oneway="1" width="2.00"/>
    <type id="highway.tertiary" priority="10" numLanes="1" speed="22.22" disallow="tram rail_urban rail rail_electric ship" oneway="0"/>
    <type id="highway.tertiary_link" priority="5" numLanes="1" speed="22.22" disallow="tram rail_urban rail rail_electric ship" oneway="0"/>
    <type id="highway.track" priority="1" numLanes="1" speed="5.56" disallow="tram rail_urban rail rail_electric ship" oneway="0"/>
    <type id="highway.trunk" priority="13" numLanes="2" speed="27.78" disallow="tram rail_urban rail rail_electric bicycle pedestrian ship" oneway="0"/>
    <type id="highway.trunk_link" priority="8" numLanes="1" speed="22.22" disallow="tram rail_urban rail rail_electric bicycle pedestrian ship" oneway="0"/>
    <type id="highway.unclassified" priority="4" numLanes="1" speed="13.89" disallow="tram rail_urban rail rail_electric ship" oneway="0"/>
    <type id="highway.unsurfaced" priority="1" numLanes="1" speed="8.33" disallow="tram rail_urban rail rail_electric ship" oneway="0"/>
    <type id="railway.highspeed" priority="21" numLanes="1" speed="69.44" allow="rail_electric" oneway="1"/>
    <type id="railway.light_rail" priority="19" numLanes="1" speed="27.78" allow="rail_urban" oneway="1"/>
    <type id="railway.preserved" priority="16" numLanes="1" speed="27.78" allow="rail" oneway="1"/>
    <type id="railway.rail" priority="20" numLanes="1" speed="44.44" allow="rail" oneway="1"/>
    <type id="railway.subway" priority="18" numLanes="1" speed="27.78" allow="rail_urban" oneway="1"/>
    <type id="railway.tram" priority="17" numLanes="1" speed="13.89" allow="tram" oneway="1"/>

    <edge id=":150129918_0" function="internal">
        <lane id=":150129918_0_0" index="0" disallow="tram rail_urban rail rail_electric ship" speed="10.00" length="4.82" shape="1137.16,4963.67 1135.82,4964.32 1134.90,4964.25 1134.40,4963.47 1134.32,4961.99"/>
    </edge>
    <edge id=":150214758_0" function="internal">
        <lane id=":150214758_0_0" index="0" disallow="tram rail_urban rail rail_electric ship" speed="22.22" length="4.82" shape="184.60,3601.33 183.95,3599.99 184.02,3599.07 184.80,3598.57 186.28,3598.49"/>
    </edge>
    <edge id=":150214783_0" function="internal">
        <lane id=":150214783_0_0" index="0" disallow="tram rail_urban rail rail_electric ship" speed="22.22" length="7.90" shape="1507.69,4378.86 1506.33,4380.54 1504.76,4381.39 1502.97,4381.40 1500.97,4380.57"/>
    </edge>
    <edge id=":150214783_1" function="internal">
        <lane id=":150214783_1_0" index="0" disallow="tram rail_urban rail rail_electric ship" speed="22.22" length="2.80" shape="1507.69,4378.86 1506.35,4379.50 1505.43,4379.43 1505.22,4379.11"/>
    </edge>
    <edge id=":150214783_4" function="internal">
        <lane id=":150214783_4_0" index="0" speed="22.22" length="2.02" shape="1505.22,4379.11 1504.93,4378.66 1504.85,4377.17"/>
    </edge>
    <edge id=":150214783_2" function="internal">
        <lane id=":150214783_2_0" index="0" disallow="tram rail_urban rail rail_electric ship" speed="22.22" length="2.58" shape="1502.66,4377.73 1503.31,4378.00 1503.89,4378.00 1504.41,4377.72 1504.85,4377.17"/>
    </edge>
    <edge id=":150214783_3" function="internal">
        <lane id=":150214783_3_0" index="0" disallow="tram rail_urban rail rail_electric ship" speed="22.22" length="2.20" shape="1502.66,4377.73 1503.30,4379.07 1503.25,4379.78"/>
    </edge>
    <edge id=":150214783_5" function="internal">
        <lane id=":150214783_5_0" index="0" speed="22.22" length="2.62" shape="1503.25,4379.78 1503.23,4379.99 1502.46,4380.49 1500.97,4380.57"/>
    </edge>
    <edge id=":150221861_0" function="internal">
        <lane id=":150221861_0_0" index="0" disallow="tram rail_urban rail rail_electric ship" speed="13.89" length="2.42" shape="2375.62,4885.85 2374.96,4885.89 2374.47,4886.13 2374.12,4886.57 2373.93,4887.20"/>
    </edge>
    <edge id=":150221861_1" function="internal">
        <lane id=":150221861_1_0" index="0" disallow="tram rail_urban rail rail_electric ship" speed="13.89" length="7.41" shape="2370.67,4886.68 2371.25,4884.76 2372.31,4883.44 2373.84,4882.70 2375.84,4882.55"/>
    </edge>
    <edge id=":151136407_0" function="internal">
        <lane id=":151136407_0_0" index="0" disallow="tram rail_urban rail rail_electric ship" speed="20.84" length="1.79" shape="4485.60,5218.17 4485.35,5218.64 4485.16,5218.95 4484.91,5219.22 4484.52,5219.58"/>
    </edge>
    <edge id=":151136407_1" function="internal">
        <lane id=":151136407_1_0" index="0" disallow="tram rail_urban rail rail_electric ship" speed="20.84" length="0.58" shape="4482.31,5217.12 4482.44,5217.01 4482.52,5216.92 4482.58,5216.82 4482.66,5216.67"/>
    </edge>
    <edge id=":151147197_0" function="internal">
        <lane id=":151147197_0_0" index="0" disallow="tram rail_urban rail rail_electric ship" speed="22.22" length="4.82" shape="5654.18,2942.98 5654.78,2944.34 5654.68,2945.26 5653.89,2945.73 5652.40,2945.76"/>
    </edge>
    <edge id=":151147577_0" function="internal">
        <lane id=":151147577_0_0" index="0" disallow="tram rail_urban rail rail_electric ship" speed="13.89" length="7.88" shape="3895.21,1897.40 3896.89,1898.76 3897.73,1900.33 3897.74,1902.11 3896.91,1904.10"/>
    </edge>
    <edge id=":151147577_1" function="internal">
        <lane id=":151147577_1_0" index="0" disallow="tram rail_urban rail rail_electric ship" speed="13.89" length="2.80" shape="3895.21,1897.40 3895.85,1898.74 3895.78,1899.66 3895.45,1899.87"/>
    </edge>
    <edge id=":151147577_4" function="internal">
        <lane id=":151147577_4_0" index="0" speed="13.89" length="2.02" shape="3895.45,1899.87 3895.00,1900.16 3893.52,1900.23"/>
    </edge>
    <edge id=":151147577_2" function="internal">
        <lane id=":151147577_2_0" index="0" disallow="tram rail_urban rail rail_electric ship" speed="13.89" length="2.57" shape="3894.07,1902.42 3894.34,1901.77 3894.34,1901.19 3894.06,1900.67 3893.52,1900.23"/>
    </edge>
    <edge id=":151147577_3" function="internal">
        <lane id=":151147577_3_0" index="0" disallow="tram rail_urban rail rail_electric ship" speed="13.89" length="2.20" shape="3894.07,1902.42 3895.41,1901.78 3896.12,1901.83"/>
    </edge>
    <edge id=":151147577_5" function="internal">
        <lane id=":151147577_5_0" index="0" speed="13.89" length="2.62" shape="3896.12,1901.83 3896.33,1901.84 3896.83,1902.62 3896.91,1904.10"/>
    </edge>
    <edge id=":151148209_0" function="internal">
        <lane id=":151148209_0_0" index="0" disallow="tram rail_urban rail rail_electric ship" speed="13.89" length="4.82" shape="854.92,1844.59 854.10,1843.35 854.04,1842.43 854.74,1841.83 856.20,1841.55"/>
    </edge>
    <edge id=":151149718_0" function="internal">
        <lane id=":151149718_0_0" index="0" disallow="tram rail_urban rail rail_electric ship" speed="13.89" length="7.82" shape="3819.33,1855.72 3817.67,1854.37 3816.83,1852.82 3816.81,1851.05 3817.61,1849.06"/>
    </edge>
    <edge id=":151149718_1" function="internal">
        <lane id=":151149718_1_0" index="0" disallow="tram rail_urban rail rail_electric ship" speed="13.89" length="2.80" shape="3819.33,1855.72 3818.69,1854.38 3818.76,1853.46 3819.09,1853.25"/>
    </edge>
    <edge id=":151149718_4" function="internal">
        <lane id=":151149718_4_0" index="0" speed="13.89" length="2.02" shape="3819.09,1853.25 3819.54,1852.96 3821.02,1852.89"/>
    </edge>
    <edge id=":151149718_2" function="internal">
        <lane id=":151149718_2_0" index="0" disallow="tram rail_urban rail rail_electric ship" speed="13.89" length="2.55" shape="3820.46,1850.72 3820.20,1851.36 3820.21,1851.94 3820.48,1852.45 3821.02,1852.89"/>
    </edge>
    <edge id=":151149718_3" function="internal">
        <lane id=":151149718_3_0" index="0" disallow="tram rail_urban rail rail_electric ship" speed="13.89" length="2.20" shape="3820.46,1850.72 3819.13,1851.37 3818.42,1851.33"/>
    </edge>
    <edge id=":151149718_5" function="internal">
        <lane id=":151149718_5_0" index="0" speed="13.89" length="2.62" shape="3818.42,1851.33 3818.21,1851.32 3817.70,1850.55 3817.61,1849.06"/>
    </edge>
    <edge id=":151156119_0" function="internal">
        <lane id=":151156119_0_0" index="0" disallow="tram rail_urban rail rail_electric ship" speed="13.89" length="4.82" shape="2753.88,1720.49 2753.24,1719.14 2753.31,1718.22 2754.09,1717.73 2755.58,1717.65"/>
    </edge>
    <edge id=":151161349_0" function="internal">
        <lane id=":151161349_0_0" index="0" disallow="tram rail_urban rail rail_electric ship" speed="20.84" length="0.24" shape="4951.14,4461.12 4951.01,4461.32"/>
    </edge>
    <edge id=":151161349_1" function="internal">
        <lane id=":151161349_1_0" index="0" speed="20.84" length="0.31" shape="4948.19,4459.61 4948.35,4459.35"/>
    </edge>
    <edge id=":151161349_2" function="internal">
        <lane id=":151161349_2_0" index="0" disallow="tram rail_urban rail rail_electric ship" speed="27.78" length="2.41" shape="4948.19,4459.61 4949.53,4458.98 4950.45,4459.06"/>
    </edge>
    <edge id=":151161349_3" function="internal">
        <lane id=":151161349_3_0" index="0" speed="27.78" length="2.41" shape="4950.45,4459.06 4950.95,4459.84 4951.01,4461.32"/>
    </edge>
    <edge id=":151172936_0" function="internal">
        <lane id=":151172936_0_0" index="0" disallow="tram rail_urban rail rail_electric ship" speed="22.22" length="1.49" shape="3119.81,2349.92 3119.48,2349.72 3119.13,2349.62 3118.77,2349.60 3118.39,2349.67"/>
    </edge>
    <edge id=":151172936_1" function="internal">
        <lane id=":151172936_1_0" index="0" disallow="tram rail_urban rail rail_electric ship" speed="22.22" length="2.08" shape="3119.81,2349.92 3119.31,2348.52 3119.42,2347.93"/>
    </edge>
    <edge id=":151172936_3" function="internal">
        <lane id=":151172936_3_0" index="0" speed="22.22" length="2.74" shape="3119.42,2347.93 3119.48,2347.61 3120.30,2347.20 3121.79,2347.28"/>
    </edge>
    <edge id=":151172936_2" function="internal">
        <lane id=":151172936_2_0" index="0" disallow="tram rail_urban rail rail_electric ship" speed="22.22" length="4.57" shape="3117.45,2346.50 3118.61,2346.29 3119.72,2346.35 3120.78,2346.68 3121.79,2347.28"/>
    </edge>
    <edge id=":151173337_0" function="internal">
        <lane id=":151173337_0_0" index="0" disallow="tram rail_urban rail rail_electric ship" speed="13.89" length="4.82" shape="4595.91,2495.00 4595.49,2493.57 4595.70,2492.67 4596.55,2492.30 4598.03,2492.46"/>
    </edge>
    <edge id=":151185545_0" function="internal">
        <lane id=":151185545_0_0" index="0" disallow="tram rail_urban rail rail_electric ship" speed="22.22" length="4.82" shape="4003.75,2705.13 4004.17,2706.56 4003.96,2707.46 4003.11,2707.83 4001.63,2707.67"/>
    </edge>
    <edge id=":151191110_0" function="internal">
        <lane id=":151191110_0_0" index="0" disallow="tram rail_urban rail rail_electric ship" speed="13.89" length="4.82" shape="2730.51,1440.43 2729.88,1439.08 2729.96,1438.16 2730.74,1437.67 2732.23,1437.61"/>
    </edge>
    <edge id=":151201327_0" function="internal">
        <lane id=":151201327_0_0" index="0" disallow="tram rail_urban rail rail_electric ship" speed="13.89" length="4.82" shape="4522.26,3748.20 4522.91,3749.54 4522.84,3750.46 4522.07,3750.96 4520.58,3751.04"/>
    </edge>
    <edge id=":2508763351_0" function="internal">
        <lane id=":2508763351_0_0" index="0" disallow="tram rail_urban rail rail_electric ship" speed="22.22" length="4.38" shape="2095.23,3588.29 2091.15,3586.69"/>
    </edge>
    <edge id=":2508763351_1" function="internal">
        <lane id=":2508763351_1_0" index="0" disallow="tram rail_urban rail rail_electric ship" speed="22.22" length="3.23" shape="2089.76,3583.70 2090.27,3579.72"/>
        <lane id=":2508763351_1_1" index="1" disallow="tram rail_urban rail rail_electric ship" speed="22.22" length="3.23" shape="2089.76,3583.70 2090.42,3583.39 2090.86,3583.17 2091.30,3582.93 2091.92,3582.57"/>
    </edge>
    <edge id=":2508763390_0" function="internal">
        <lane id=":2508763390_0_0" index="0" disallow="tram rail_urban rail rail_electric ship" speed="14.77" length="7.58" shape="2442.99,4034.66 2443.43,4036.67 2443.15,4038.37 2442.13,4039.77 2440.37,4040.86"/>
    </edge>
    <edge id=":2508763390_1" function="internal">
        <lane id=":2508763390_1_0" index="0" disallow="tram rail_urban rail rail_electric ship" speed="14.77" length="2.48" shape="2439.04,4037.84 2439.62,4037.48 2439.95,4037.03 2440.04,4036.47 2439.90,4035.81"/>
    </edge>
    <edge id=":2508763395_0" function="internal">
        <lane id=":2508763395_0_0" index="0" speed="9.73" length="0.20" shape="2368.72,4097.26 2368.69,4097.30 2368.66,4097.34 2368.64,4097.37 2368.61,4097.43"/>
    </edge>
    <edge id=":2508763395_1" function="internal">
        <lane id=":2508763395_1_0" index="0" disallow="tram rail_urban rail rail_electric ship" speed="9.73" length="0.62" shape="2365.71,4095.86 2365.80,4095.69 2365.86,4095.58 2365.93,4095.48 2366.04,4095.33"/>
    </edge>
    <edge id=":312001628_0" function="internal">
        <lane id=":312001628_0_0" index="0" disallow="tram rail_urban rail rail_electric ship" speed="20.84" length="0.22" shape="4408.68,5288.72 4408.63,5288.76 4408.60,5288.79 4408.57,5288.83 4408.52,5288.87"/>
    </edge>
    <edge id=":312001628_1" function="internal">
        <lane id=":312001628_1_0" index="0" disallow="tram rail_urban rail rail_electric ship" speed="20.84" length="0.66" shape="4406.06,5286.67 4406.20,5286.53 4406.29,5286.43 4406.39,5286.34 4406.54,5286.21"/>
    </edge>
    <edge id=":3250413371_0" function="internal">
        <lane id=":3250413371_0_0" index="0" speed="5.56" length="4.82" shape="4655.20,4186.10 4654.80,4184.67 4655.03,4183.77 4655.88,4183.42 4657.36,4183.60"/>
    </edge>
    <edge id=":3250413381_0" function="internal">
        <lane id=":3250413381_0_0" index="0" speed="9.73" length="5.71" shape="4954.90,4449.72 4955.58,4451.06 4955.81,4452.40 4955.61,4453.74 4954.97,4455.09"/>
    </edge>
    <edge id=":3250413381_1" function="internal">
        <lane id=":3250413381_1_0" index="0" speed="9.73" length="1.86" shape="4952.19,4453.32 4952.40,4452.88 4952.46,4452.44 4952.38,4452.00 4952.16,4451.57"/>
    </edge>
    <edge id=":3319915967_0" function="internal">
        <lane id=":3319915967_0_0" index="0" disallow="tram rail_urban rail rail_electric ship" speed="11.18" length="4.82" shape="1796.73,1511.25 1798.08,1510.62 1799.00,1510.70 1799.49,1511.48 1799.55,1512.97"/>
    </edge>
    <edge id=":3476469974_0" function="internal">
        <lane id=":3476469974_0_0" index="0" disallow="tram rail_urban rail rail_electric ship" speed="2.78" length="4.82" shape="1186.46,1734.86 1185.80,1733.53 1185.85,1732.61 1186.62,1732.10 1188.10,1732.00"/>
    </edge>
    <edge id=":3476469985_0" function="internal">
        <lane id=":3476469985_0_0" index="0" disallow="tram rail_urban rail rail_electric ship" speed="11.18" length="4.82" shape="1788.24,1793.66 1788.89,1795.00 1788.82,1795.92 1788.04,1796.42 1786.56,1796.50"/>
    </edge>
    <edge id=":3742633763_0" function="internal">
        <lane id=":3742633763_0_0" index="0" disallow="tram rail_urban rail rail_electric ship" speed="22.22" length="0.86" shape="2162.74,3516.90 2162.24,3517.77"/>
        <lane id=":3742633763_0_1" index="1" disallow="tram rail_urban rail rail_electric ship" speed="22.22" length="0.86" shape="2159.80,3515.40 2159.45,3516.02"/>
    </edge>
    <edge id=":3742633763_2" function="internal">
        <lane id=":3742633763_2_0" index="0" disallow="tram rail_urban rail rail_electric ship" speed="22.22" length="0.28" shape="2153.85,3512.52 2153.92,3512.39"/>
        <lane id=":3742633763_2_1" index="1" disallow="tram rail_urban rail rail_electric ship" speed="22.22" length="0.28" shape="2156.65,3514.27 2156.86,3513.90"/>
    </edge>
    <edge id=":3742633763_4" function="internal">
        <lane id=":3742633763_4_0" index="0" disallow="tram rail_urban rail rail_electric ship" speed="22.22" length="2.41" shape="2156.65,3514.27 2158.01,3513.66 2158.92,3513.74"/>
    </edge>
    <edge id=":3742633763_5" function="internal">
        <lane id=":3742633763_5_0" index="0" speed="22.22" length="2.41" shape="2158.92,3513.74 2159.40,3514.53 2159.45,3516.02"/>
    </edge>
    <edge id=":3945551943_0" function="internal">
        <lane id=":3945551943_0_0" index="0" speed="8.34" length="5.56" shape="1906.42,2133.61 1907.60,2134.45 1908.43,2135.49 1908.89,2136.74 1908.99,2138.18"/>
    </edge>
    <edge id=":3945551943_1" function="internal">
        <lane id=":3945551943_1_0" index="0" disallow="tram rail_urban rail rail_electric ship" speed="8.34" length="1.82" shape="1905.69,2138.01 1905.66,2137.54 1905.51,2137.13 1905.24,2136.79 1904.85,2136.52"/>
    </edge>
    <edge id=":4601407113_0" function="internal">
        <lane id=":4601407113_0_0" index="0" disallow="tram rail_urban rail rail_electric ship" speed="13.89" length="4.82" shape="4031.16,5963.34 4029.82,5963.99 4028.90,5963.94 4028.40,5963.17 4028.30,5961.68"/>
    </edge>
    <edge id=":6100569062_0" function="internal">
        <lane id=":6100569062_0_0" index="0" speed="5.56" length="8.15" shape="3556.09,4707.29 3557.95,4708.56 3558.92,4710.11 3559.02,4711.93 3558.23,4714.04"/>
    </edge>
    <edge id=":6100569062_1" function="internal">
        <lane id=":6100569062_1_0" index="0" speed="5.56" length="2.66" shape="3555.34,4712.46 3555.59,4711.77 3555.56,4711.17 3555.24,4710.67 3554.64,4710.26"/>
    </edge>
    <edge id=":6100569080_0" function="internal">
        <lane id=":6100569080_0_0" index="0" disallow="tram rail_urban rail rail_electric ship" speed="13.41" length="4.82" shape="3664.88,4814.04 3665.62,4815.33 3665.61,4816.25 3664.87,4816.80 3663.40,4816.98"/>
    </edge>
    <edge id=":6100569081_0" function="internal">
        <lane id=":6100569081_0_0" index="0" speed="5.56" length="7.93" shape="3463.13,4551.04 3464.90,4552.31 3465.84,4553.83 3465.94,4555.62 3465.21,4557.67"/>
    </edge>
    <edge id=":6100569081_1" function="internal">
        <lane id=":6100569081_1_0" index="0" speed="5.56" length="2.59" shape="3462.29,4556.13 3462.53,4555.46 3462.49,4554.88 3462.19,4554.38 3461.61,4553.97"/>
    </edge>
    <edge id=":6100569083_0" function="internal">
        <lane id=":6100569083_0_0" index="0" disallow="tram rail_urban rail rail_electric ship" speed="9.73" length="0.18" shape="3379.46,4509.15 3379.41,4509.12 3379.38,4509.11 3379.35,4509.09 3379.30,4509.07"/>
    </edge>
    <edge id=":6100569083_1" function="internal">
        <lane id=":6100569083_1_0" index="0" speed="9.73" length="0.55" shape="3380.62,4506.05 3380.77,4506.11 3380.88,4506.16 3380.97,4506.21 3381.12,4506.29"/>
    </edge>
    <edge id=":6117350510_0" function="internal">
        <lane id=":6117350510_0_0" index="0" speed="9.48" length="2.53" shape="3438.34,4693.77 3437.69,4693.53 3437.12,4693.54 3436.62,4693.82 3436.19,4694.36"/>
    </edge>
    <edge id=":6117350510_1" function="internal">
        <lane id=":6117350510_1_0" index="0" disallow="tram rail_urban rail rail_electric ship" speed="13.41" length="4.82" shape="3438.34,4693.77 3437.66,4692.45 3437.69,4691.53 3438.45,4691.01 3439.93,4690.88"/>
    </edge>
    <edge id=":6117350510_2" function="internal">
        <lane id=":6117350510_2_0" index="0" disallow="tram rail_urban rail rail_electric ship" speed="9.48" length="7.74" shape="3433.34,4692.69 3434.66,4691.03 3436.20,4690.18 3437.96,4690.13 3439.93,4690.88"/>
    </edge>
    <edge id=":6117350516_0" function="internal">
        <lane id=":6117350516_0_0" index="0" speed="5.56" length="4.82" shape="3382.02,4786.34 3380.68,4786.98 3379.76,4786.92 3379.26,4786.15 3379.18,4784.66"/>
    </edge>
    <edge id=":6120857878_0" function="internal">
        <lane id=":6120857878_0_0" index="0" speed="20.84" length="0.27" shape="4293.13,2837.58 4293.00,2837.80"/>
    </edge>
    <edge id=":6120857878_1" function="internal">
        <lane id=":6120857878_1_0" index="0" disallow="tram rail_urban rail rail_electric ship" speed="27.78" length="2.41" shape="4293.13,2837.58 4291.78,2838.20 4290.87,2838.12"/>
    </edge>
    <edge id=":6120857878_3" function="internal">
        <lane id=":6120857878_3_0" index="0" speed="27.78" length="2.41" shape="4290.87,2838.12 4290.38,2837.34 4290.32,2835.86"/>
    </edge>
    <edge id=":6120857878_2" function="internal">
        <lane id=":6120857878_2_0" index="0" disallow="tram rail_urban rail rail_electric ship" speed="20.84" length="0.31" shape="4290.16,2836.13 4290.32,2835.86"/>
    </edge>
    <edge id=":6131062578_0" function="internal">
        <lane id=":6131062578_0_0" index="0" speed="5.56" length="4.82" shape="2164.18,4110.77 2162.84,4111.42 2161.92,4111.37 2161.41,4110.59 2161.32,4109.11"/>
    </edge>
    <edge id=":6622874832_0" function="internal">
        <lane id=":6622874832_0_0" index="0" speed="9.73" length="5.40" shape="3240.71,3114.30 3239.70,3113.33 3239.05,3112.21 3238.76,3110.95 3238.84,3109.55"/>
    </edge>
    <edge id=":6622874832_1" function="internal">
        <lane id=":6622874832_1_0" index="0" disallow="tram rail_urban rail rail_electric ship" speed="13.89" length="4.82" shape="3240.71,3114.30 3240.22,3112.90 3240.39,3111.99 3241.22,3111.58 3242.70,3111.67"/>
    </edge>
    <edge id=":6622874832_2" function="internal">
        <lane id=":6622874832_2_0" index="0" disallow="tram rail_urban rail rail_electric ship" speed="9.73" length="1.76" shape="3242.09,3110.12 3242.06,3110.57 3242.16,3110.99 3242.37,3111.35 3242.70,3111.67"/>
    </edge>
    <edge id=":6622874832_3" function="internal">
        <lane id=":6622874832_3_0" index="0" speed="5.56" length="4.82" shape="3242.09,3110.12 3241.06,3111.19 3240.18,3111.46 3239.44,3110.91 3238.84,3109.55"/>
    </edge>
    <edge id=":6622874833_0" function="internal">
        <lane id=":6622874833_0_0" index="0" speed="5.56" length="7.55" shape="3137.63,3037.32 3135.58,3037.19 3134.03,3036.45 3132.97,3035.09 3132.41,3033.11"/>
    </edge>
    <edge id=":6622874833_1" function="internal">
        <lane id=":6622874833_1_0" index="0" speed="5.56" length="4.82" shape="3137.63,3037.32 3136.33,3036.59 3135.86,3035.80 3136.21,3034.95 3137.38,3034.03"/>
    </edge>
    <edge id=":6622874833_2" function="internal">
        <lane id=":6622874833_2_0" index="0" speed="5.56" length="2.47" shape="3135.67,3032.66 3135.86,3033.30 3136.20,3033.75 3136.71,3033.99 3137.38,3034.03"/>
    </edge>
    <edge id=":6622874833_3" function="internal">
        <lane id=":6622874833_3_0" index="0" speed="5.56" length="4.82" shape="3135.67,3032.66 3135.03,3034.00 3134.27,3034.52 3133.39,3034.22 3132.41,3033.11"/>
    </edge>
    <edge id=":6622874834_0" function="internal">
        <lane id=":6622874834_0_0" index="0" speed="5.56" length="4.82" shape="3126.30,2989.11 3126.94,2987.77 3127.70,2987.25 3128.58,2987.54 3129.56,2988.65"/>
    </edge>
    <edge id=":6660727606_0" function="internal">
        <lane id=":6660727606_0_0" index="0" disallow="tram rail_urban rail rail_electric ship" speed="20.84" length="0.29" shape="4192.31,3008.26 4192.16,3008.51"/>
    </edge>
    <edge id=":6660727606_1" function="internal">
        <lane id=":6660727606_1_0" index="0" speed="20.84" length="0.31" shape="4189.31,3006.85 4189.47,3006.58"/>
    </edge>
    <edge id=":6660727606_2" function="internal">
        <lane id=":6660727606_2_0" index="0" disallow="tram rail_urban rail rail_electric ship" speed="27.78" length="2.41" shape="4189.31,3006.85 4190.64,3006.19 4191.56,3006.25"/>
    </edge>
    <edge id=":6660727606_3" function="internal">
        <lane id=":6660727606_3_0" index="0" speed="27.78" length="2.41" shape="4191.56,3006.25 4192.07,3007.02 4192.16,3008.51"/>
    </edge>
    <edge id=":6912842200_0" function="internal">
        <lane id=":6912842200_0_0" index="0" disallow="tram rail_urban rail rail_electric ship" speed="13.89" length="4.82" shape="2022.73,5536.96 2021.38,5537.60 2020.47,5537.52 2019.97,5536.74 2019.91,5535.26"/>
    </edge>
    <edge id=":7285093272_0" function="internal">
        <lane id=":7285093272_0_0" index="0" disallow="tram rail_urban rail rail_electric ship" speed="20.84" length="0.52" shape="4606.00,5031.13 4605.92,5031.26 4605.86,5031.35 4605.80,5031.43 4605.71,5031.55"/>
    </edge>
    <edge id=":7285093272_1" function="internal">
        <lane id=":7285093272_1_0" index="0" disallow="tram rail_urban rail rail_electric ship" speed="20.84" length="0.17" shape="4603.08,5029.56 4603.11,5029.52 4603.13,5029.49 4603.15,5029.46 4603.18,5029.42"/>
    </edge>
    <edge id=":HS001_0" function="internal">
        <lane id=":HS001_0_0" index="0" disallow="tram rail_urban rail rail_electric ship" speed="27.77" length="5.15" shape="2201.30,3448.59 2200.01,3447.97 2198.87,3447.95 2197.89,3448.52 2197.06,3449.70"/>
    </edge>
    <edge id=":HS001_1" function="internal">
        <lane id=":HS001_1_0" index="0" speed="33.33" length="16.85" shape="2201.30,3448.59 2187.21,3439.78"/>
        <lane id=":HS001_1_1" index="1" speed="33.33" length="16.85" shape="2203.14,3445.85 2188.85,3436.92"/>
        <lane id=":HS001_1_2" index="2" speed="33.33" length="16.85" shape="2204.98,3443.11 2190.50,3434.06"/>
    </edge>
    <edge id=":HS001_4" function="internal">
        <lane id=":HS001_4_0" index="0" disallow="tram rail_urban rail rail_electric ship" speed="27.77" length="6.11" shape="2204.98,3443.11 2201.45,3439.78 2200.98,3438.61"/>
    </edge>
    <edge id=":HS001_18" function="internal">
        <lane id=":HS001_18_0" index="0" speed="27.77" length="13.29" shape="2200.98,3438.61 2199.87,3435.83 2200.22,3431.24 2202.51,3426.03"/>
    </edge>
    <edge id=":HS001_5" function="internal">