<additional>
<laneAreaDetector id="e2det_HS001#0#01_0" lane="HS001#0#01_0" endPos="-0.01" length="70" freq="1" file="e2out.xml" timeThreshold="1.0" speedThreshold="1.39" jamThreshold="10.0"/>
<laneAreaDetector id="e2det_HS001#0#01_1" lane="HS001#0#01_1" endPos="-0.01" length="70" freq="1" file="e2out.xml" timeThreshold="1.0" speedThreshold="1.39" jamThreshold="10.0"/>
<laneAreaDetector id="e2det_HS001#0#01_2" lane="HS001#0#01_2" endPos="-0.01" length="70" freq="1" file="e2out.xml" timeThreshold="1.0" speedThreshold="1.39" jamThreshold="10.0"/>
<laneAreaDetector id="e2det_HS001#0#02_0" lane="HS001#0#02_0" endPos="-0.01" length="70" freq="1" file="e2out.xml" timeThreshold="1.0" speedThreshold="1.39" jamThreshold="10.0"/>
<laneAreaDetector id="e2det_HS001#0#02_1" lane="HS001#0#02_1" endPos="-0.01" length="70" freq="1" file="e2out.xml" timeThreshold="1.0" speedThreshold="1.39" jamThreshold="10.0"/>
<laneAreaDetector id="e2det_HS001#0#03_0" lane="HS001#0#03_0" endPos="-0.01" length="70" freq="1" file="e2out.xml" timeThreshold="1.0" speedThreshold="1.39" jamThreshold="10.0"/>
<laneAreaDetector id="e2det_HS001#0#03_1" lane="HS001#0#03_1" endPos="-0.01" length="70" freq="1" file="e2out.xml" timeThreshold="1.0" speedThreshold="1.39" jamThreshold="10.0"/>
<laneAreaDetector id="e2det_HS001#0#03_2" lane="HS001#0#03_2" endPos="-0.01" length="70" freq="1" file="e2out.xml" timeThreshold="1.0" speedThreshold="1.39" jamThreshold="10.0"/>
<laneAreaDetector id="e2det_HS001#0#04_0" lane="HS001#0#04_0" endPos="-0.01" length="70" freq="1" file="e2out.xml" timeThreshold="1.0" speedThreshold="1.39" jamThreshold="10.0"/>
<laneAreaDetector id="e2det_HS001#0#04_1" lane="HS001#0#04_1" endPos="-0.01" length="70" freq="1" file="e2out.xml" timeThreshold="1.0" speedThreshold="1.39" jamThreshold="10.0"/>
<laneAreaDetector id="e2det_HS002#0#01_0" lane="HS002#0#01_0" endPos="-0.01" length="70" freq="1" file="e2out.xml" timeThreshold="1.0" speedThreshold="1.39" jamThreshold="10.0"/>
<laneAreaDetector id="e2det_HS002#0#01_1" lane="HS002#0#01_1" endPos="-0.01" length="70" freq="1" file="e2out.xml" timeThreshold="1.0" speedThreshold="1.39" jamThreshold="10.0"/>
<laneAreaDetector id="e2det_HS002#0#01_2" lane="HS002#0#01_2" endPos="-0.01" length="70" freq="1" file="e2out.xml" timeThreshold="1.0" speedThreshold="1.39" jamThreshold="10.0"/>
<laneAreaDetector id="e2det_HS002#0#02_0" lane="HS002#0#02_0" endPos="-0.01" length="70" freq="1" file="e2out.xml" timeThreshold="1.0" speedThreshold="1.39" jamThreshold="10.0"/>
<laneAreaDetector id="e2det_HS002#0#02_1" lane="HS002#0#02_1" endPos="-0.01" length="70" freq="1" file="e2out.xml" timeThreshold="1.0" speedThreshold="1.39" jamThreshold="10.0"/>
<laneAreaDetector id="e2det_HS002#0#03_0" lane="HS002#0#03_0" endPos="-0.01" length="70" freq="1" file="e2out.xml" timeThreshold="1.0" speedThreshold="1.39" jamThreshold="10.0"/>
<laneAreaDetector id="e2det_HS002#0#03_1" lane="HS002#0#03_1" endPos="-0.01" length="70" freq="1" file="e2out.xml" timeThreshold="1.0" speedThreshold="1.39" jamThreshold="10.0"/>
<laneAreaDetector id="e2det_HS002#0#03_2" lane="HS002#0#03_2" endPos="-0.01" length="70" freq="1" file="e2out.xml" timeThreshold="1.0" speedThreshold="1.39" jamThreshold="10.0"/>
<laneAreaDetector id="e2det_HS002#0#04_0" lane="HS002#0#04_0" endPos="-0.01" length="70" freq="1" file="e2out.xml" timeThreshold="1.0" speedThreshold="1.39" jamThreshold="10.0"/>
<laneAreaDetector id="e2det_HS002#0#04_1" lane="HS002#0#04_1" endPos="-0.01" length="70" freq="1" file="e2out.xml" timeThreshold="1.0" speedThreshold="1.39" jamThreshold="10.0"/>
<laneAreaDetector id="e2det_HS003#0#01_0" lane="HS003#0#01_0" endPos="-0.01" length="70" freq="1" file="e2out.xml" timeThreshold="1.0" speedThreshold="1.39" jamThreshold="10.0"/>
<laneAreaDetector id="e2det_HS003#0#02_0" lane="HS003#0#02_0" endPos="-0.01" length="70" freq="1" file="e2out.xml" timeThreshold="1.0" speedThreshold="1.39" jamThreshold="10.0"/>
<laneAreaDetector id="e2det_HS003#0#03_0" lane="HS003#0#03_0" endPos="-0.01" length="70" freq="1" file="e2out.xml" timeThreshold="1.0" speedThreshold="1.39" jamThreshold="10.0"/>
<laneAreaDetector id="e2det_HS003#0#04_0" lane="HS003#0#04_0" endPos="-0.01" length="70" freq="1" file="e2out.xml" timeThreshold="1.0" speedThreshold="1.39" jamThreshold="10.0"/>
<laneAreaDetector id="e2det_HS004#0#01_0" lane="HS004#0#01_0" endPos="-0.01" length="70" freq="1" file="e2out.xml" timeThreshold="1.0" speedThreshold="1.39" jamThreshold="10.0"/>
<laneAreaDetector id="e2det_HS004#0#01_1" lane="HS004#0#01_1" endPos="-0.01" length="70" freq="1" file="e2out.xml" timeThreshold="1.0" speedThreshold="1.39" jamThreshold="10.0"/>
<laneAreaDetector id="e2det_HS004#0#02_0" lane="HS004#0#02_0" endPos="-0.01" length="70" freq="1" file="e2out.xml" timeThreshold="1.0" speedThreshold="1.39" jamThreshold="10.0"/>
<laneAreaDetector id="e2det_HS004#0#03_0" lane="HS004#0#03_0" endPos="-0.01" length="70" freq="1" file="e2out.xml" timeThreshold="1.0" speedThreshold="1.39" jamThreshold="10.0"/>
<laneAreaDetector id="e2det_HS004#0#03_1" lane="HS004#0#03_1" endPos="-0.01" length="70" freq="1" file="e2out.xml" timeThreshold="1.0" speedThreshold="1.39" jamThreshold="10.0"/>
<laneAreaDetector id="e2det_NS001#0#01_0" lane="NS001#0#01_0" endPos="-0.01" length="30" freq="1" file="e2out.xml" timeThreshold="1.0" speedThreshold="1.39" jamThreshold="10.0"/>
<laneAreaDetector id="e2det_NS001#0#02_0" lane="NS001#0#02_0" endPos="-0.01" length="30" freq="1" file="e2out.xml" timeThreshold="1.0" speedThreshold="1.39" jamThreshold="10.0"/>
<laneAreaDetector id="e2det_NS001#0#03_0" lane="NS001#0#03_0" endPos="-0.01" length="30" freq="1" file="e2out.xml" timeThreshold="1.0" speedThreshold="1.39" jamThreshold="10.0"/>
<laneAreaDetector id="e2det_NS002#0#01_0" lane="NS002#0#01_0" endPos="-0.01" length="30" freq="1" file="e2out.xml" timeThreshold="1.0" speedThreshold="1.39" jamThreshold="10.0"/>
<laneAreaDetector id="e2det_NS002#0#02_0" lane="NS002#0#02_0" endPos="-0.01" length="30" freq="1" file="e2out.xml" timeThreshold="1.0" speedThreshold="1.39" jamThreshold="10.0"/>
<laneAreaDetector id="e2det_NS002#0#03_0" lane="NS002#0#03_0" endPos="-0.01" length="30" freq="1" file="e2out.xml" timeThreshold="1.0" speedThreshold="1.39" jamThreshold="10.0"/>
<laneAreaDetector id="e2det_NS003#0#01_0" lane="NS003#0#01_0" endPos="-0.01" length="30" freq="1" file="e2out.xml" timeThreshold="1.0" speedThreshold="1.39" jamThreshold="10.0"/>
<laneAreaDetector id="e2det_NS003#0#01_1" lane="NS003#0#01_1" endPos="-0.01" length="30" freq="1" file="e2out.xml" timeThreshold="1.0" speedThreshold="1.39" jamThreshold="10.0"/>
<laneAreaDetector id="e2det_NS003#0#02_0" lane="NS003#0#02_0" endPos="-0.01" length="30" freq="1" file="e2out.xml" timeThreshold="1.0" speedThreshold="1.39" jamThreshold="10.0"/>
<laneAreaDetector id="e2det_NS003#0#02_1" lane="NS003#0#02_1" endPos="-0.01" length="30" freq="1" file="e2out.xml" timeThreshold="1.0" speedThreshold="1.39" jamThreshold="10.0"/>
<laneAreaDetector id="e2det_NS003#0#03_0" lane="NS003#0#03_0" endPos="-0.01" length="30" freq="1" file="e2out.xml" timeThreshold="1.0" speedThreshold="1.39" jamThreshold="10.0"/>
<laneAreaDetector id="e2det_NS003#0#03_1" lane="NS003#0#03_1" endPos="-0.01" length="30" freq="1" file="e2out.xml" timeThreshold="1.0" speedThreshold="1.39" jamThreshold="10.0"/>
<laneAreaDetector id="e2det_NS004#0#01_0" lane="NS004#0#01_0" endPos="-0.01" length="30" freq="1" file="e2out.xml" timeThreshold="1.0" speedThreshold="1.39" jamThreshold="10.0"/>
<laneAreaDetector id="e2det_NS004#0#02_0" lane="NS004#0#02_0" endPos="-0.01" length="30" freq="1" file="e2out.xml" timeThreshold="1.0" speedThreshold="1.39" jamThreshold="10.0"/>
<laneAreaDetector id="e2det_NS004#0#03_0" lane="NS004#0#03_0" endPos="-0.01" length="30" freq="1" file="e2out.xml" timeThreshold="1.0" speedThreshold="1.39" jamThreshold="10.0"/>
<laneAreaDetector id="e2det_NS005#0#01_0" lane="NS005#0#01_0" endPos="-0.01" length="30" freq="1" file="e2out.xml" timeThreshold="1.0" speedThreshold="1.39" jamThreshold="10.0"/>
<laneAreaDetector id="e2det_NS005#0#02_0" lane="NS005#0#02_0" endPos="-0.01" length="30" freq="1" file="e2out.xml" timeThreshold="1.0" speedThreshold="1.39" jamThreshold="10.0"/>
<laneAreaDetector id="e2det_NS005#0#03_0" lane="NS005#0#03_0" endPos="-0.01" length="30" freq="1" file="e2out.xml" timeThreshold="1.0" speedThreshold="1.39" jamThreshold="10.0"/>
<laneAreaDetector id="e2det_NS006#0#01_0" lane="NS006#0#01_0" endPos="-0.01" length="30" freq="1" file="e2out.xml" timeThreshold="1.0" speedThreshold="1.39" jamThreshold="10.0"/>
<laneAreaDetector id="e2det_NS006#0#02_0" lane="NS006#0#02_0" endPos="-0.01" length="30" freq="1" file="e2out.xml" timeThreshold="1.0" speedThreshold="1.39" jamThreshold="10.0"/>
<laneAreaDetector id="e2det_NS006#0#03_0" lane="NS006#0#03_0" endPos="-0.01" length="30" freq="1" file="e2out.xml" timeThreshold="1.0" speedThreshold="1.39" jamThreshold="10.0"/>
<laneAreaDetector id="e2det_NS007#0#01_0" lane="NS007#0#01_0" endPos="-0.01" length="30" freq="1" file="e2out.xml" timeThreshold="1.0" speedThreshold="1.39" jamThreshold="10.0"/>
<laneAreaDetector id="e2det_NS007#0#01_1" lane="NS007#0#01_1" endPos="-0.01" length="30" freq="1" file="e2out.xml" timeThreshold="1.0" speedThreshold="1.39" jamThreshold="10.0"/>
<laneAreaDetector id="e2det_NS007#0#02_0" lane="NS007#0#02_0" endPos="-0.01" length="30" freq="1" file="e2out.xml" timeThreshold="1.0" speedThreshold="1.39" jamThreshold="10.0"/>
<laneAreaDetector id="e2det_NS007#0#03_0" lane="NS007#0#03_0" endPos="-0.01" length="30" freq="1" file="e2out.xml" timeThreshold="1.0" speedThreshold="1.39" jamThreshold="10.0"/>
<laneAreaDetector id="e2det_NS007#0#03_1" lane="NS007#0#03_1" endPos="-0.01" length="30" freq="1" file="e2out.xml" timeThreshold="1.0" speedThreshold="1.39" jamThreshold="10.0"/>
<laneAreaDetector id="e2det_NS008#0#01_0" lane="NS008#0#01_0" endPos="-0.01" length="30" freq="1" file="e2out.xml" timeThreshold="1.0" speedThreshold="1.39" jamThreshold="10.0"/>
<laneAreaDetector id="e2det_NS008#0#01_1" lane="NS008#0#01_1" endPos="-0.01" length="30" freq="1" file="e2out.xml" timeThreshold="1.0" speedThreshold="1.39" jamThreshold="10.0"/>
<laneAreaDetector id="e2det_NS008#0#02_0" lane="NS008#0#02_0" endPos="-0.01" length="30" freq="1" file="e2out.xml" timeThreshold="1.0" speedThreshold="1.39" jamThreshold="10.0"/>
<laneAreaDetector id="e2det_NS008#0#02_1" lane="NS008#0#02_1" endPos="-0.01" length="30" freq="1" file="e2out.xml" timeThreshold="1.0" speedThreshold="1.39" jamThreshold="10.0"/>
<laneAreaDetector id="e2det_NS008#0#03_0" lane="NS008#0#03_0" endPos="-0.01" length="30" freq="1" file="e2out.xml" timeThreshold="1.0" speedThreshold="1.39" jamThreshold="10.0"/>
<laneAreaDetector id="e2det_NS008#0#03_1" lane="NS008#0#03_1" endPos="-0.01" length="30" freq="1" file="e2out.xml" timeThreshold="1.0" speedThreshold="1.39" jamThreshold="10.0"/>
<laneAreaDetector id="e2det_NS009#0#01_0" lane="NS009#0#01_0" endPos="-0.01" length="30" freq="1" file="e2out.xml" timeThreshold="1.0" speedThreshold="1.39" jamThreshold="10.0"/>
<laneAreaDetector id="e2det_NS009#0#02_0" lane="NS009#0#02_0" endPos="-0.01" length="30" freq="1" file="e2out.xml" timeThreshold="1.0" speedThreshold="1.39" jamThreshold="10.0"/>
<laneAreaDetector id="e2det_NS009#0#02_1" lane="NS009#0#02_1" endPos="-0.01" length="30" freq="1" file="e2out.xml" timeThreshold="1.0" speedThreshold="1.39" jamThreshold="10.0"/>
<laneAreaDetector id="e2det_NS009#0#03_0" lane="NS009#0#03_0" endPos="-0.01" length="30" freq="1" file="e2out.xml" timeThreshold="1.0" speedThreshold="1.39" jamThreshold="10.0"/>
<laneAreaDetector id="e2det_NS010#0#01_0" lane="NS010#0#01_0" endPos="-0.01" length="30" freq="1" file="e2out.xml" timeThreshold="1.0" speedThreshold="1.39" jamThreshold="10.0"/>
<laneAreaDetector id="e2det_NS010#0#01_1" lane="NS010#0#01_1" endPos="-0.01" length="30" freq="1" file="e2out.xml" timeThreshold="1.0" speedThreshold="1.39" jamThreshold="10.0"/>
<laneAreaDetector id="e2det_NS010#0#02_0" lane="NS010#0#02_0" endPos="-0.01" length="30" freq="1" file="e2out.xml" timeThreshold="1.0" speedThreshold="1.39" jamThreshold="10.0"/>
<laneAreaDetector id="e2det_NS010#0#02_1" lane="NS010#0#02_1" endPos="-0.01" length="30" freq="1" file="e2out.xml" timeThreshold="1.0" speedThreshold="1.39" jamThreshold="10.0"/>
<laneAreaDetector id="e2det_NS010#0#03_0" lane="NS010#0#03_0" endPos="-0.01" length="30" freq="1" file="e2out.xml" timeThreshold="1.0" speedThreshold="1.39" jamThreshold="10.0"/>
<laneAreaDetector id="e2det_NS010#0#03_1" lane="NS010#0#03_1" endPos="-0.01" length="30" freq="1" file="e2out.xml" timeThreshold="1.0" speedThreshold="1.39" jamThreshold="10.0"/>
<laneAreaDetector id="e2det_NS011#0#01_0" lane="NS011#0#01_0" endPos="-0.01" length="30" freq="1" file="e2out.xml" timeThreshold="1.0" speedThreshold="1.39" jamThreshold="10.0"/>
<laneAreaDetector id="e2det_NS011#0#02_0" lane="NS011#0#02_0" endPos="-0.01" length="30" freq="1" file="e2out.xml" timeThreshold="1.0" speedThreshold="1.39" jamThreshold="10.0"/>
<laneAreaDetector id="e2det_NS011#0#03_0" lane="NS011#0#03_0" endPos="-0.01" length="30" freq="1" file="e2out.xml" timeThreshold="1.0" speedThreshold="1.39" jamThreshold="10.0"/>
<laneAreaDetector id="e2det_NS012#0#01_0" lane="NS012#0#01_0" endPos="-0.01" length="30" freq="1" file="e2out.xml" timeThreshold="1.0" speedThreshold="1.39" jamThreshold="10.0"/>
<laneAreaDetector id="e2det_NS012#0#02_0" lane="NS012#0#02_0" endPos="-0.01" length="30" freq="1" file="e2out.xml" timeThreshold="1.0" speedThreshold="1.39" jamThreshold="10.0"/>
<laneAreaDetector id="e2det_NS012#0#03_0" lane="NS012#0#03_0" endPos="-0.01" length="30" freq="1" file="e2out.xml" timeThreshold="1.0" speedThreshold="1.39" jamThreshold="10.0"/>
<laneAreaDetector id="e2det_NS013#0#01_0" lane="NS013#0#01_0" endPos="-0.01" length="30" freq="1" file="e2out.xml" timeThreshold="1.0" speedThreshold="1.39" jamThreshold="10.0"/>
<laneAreaDetector id="e2det_NS013#0#02_0" lane="NS013#0#02_0" endPos="-0.01" length="30" freq="1" file="e2out.xml" timeThreshold="1.0" speedThreshold="1.39" jamThreshold="10.0"/>
<laneAreaDetector id="e2det_NS013#0#03_0" lane="NS013#0#03_0" endPos="-0.01" length="30" freq="1" file="e2out.xml" timeThreshold="1.0" speedThreshold="1.39" jamThreshold="10.0"/>
<laneAreaDetector id="e2det_NS014#0#01_0" lane="NS014#0#01_0" endPos="-0.01" length="30" freq="1" file="e2out.xml" timeThreshold="1.0" speedThreshold="1.39" jamThreshold="10.0"/>
<laneAreaDetector id="e2det_NS014#0#02_0" lane="NS014#0#02_0" endPos="-0.01" length="30" freq="1" file="e2out.xml" timeThreshold="1.0" speedThreshold="1.39" jamThreshold="10.0"/>
<laneAreaDetector id="e2det_NS014#0#03_0" lane="NS014#0#03_0" endPos="-0.01" length="30" freq="1" file="e2out.xml" timeThreshold="1.0" speedThreshold="1.39" jamThreshold="10.0"/>
<laneAreaDetector id="e2det_NS015#0#01_0" lane="NS015#0#01_0" endPos="-0.01" length="30" freq="1" file="e2out.xml" timeThreshold="1.0" speedThreshold="1.39" jamThreshold="10.0"/>
<laneAreaDetector id="e2det_NS015#0#01_1" lane="NS015#0#01_1" endPos="-0.01" length="30" freq="1" file="e2out.xml" timeThreshold="1.0" speedThreshold="1.39" jamThreshold="10.0"/>
<laneAreaDetector id="e2det_NS015#0#01_2" lane="NS015#0#01_2" endPos="-0.01" length="30" freq="1" file="e2out.xml" timeThreshold="1.0" speedThreshold="1.39" jamThreshold="10.0"/>
<laneAreaDetector id="e2det_NS015#0#02_0" lane="NS015#0#02_0" endPos="-0.01" length="30" freq="1" file="e2out.xml" timeThreshold="1.0" speedThreshold="1.39" jamThreshold="10.0"/>
<laneAreaDetector id="e2det_NS015#0#03_0" lane="NS015#0#03_0" endPos="-0.01" length="30" freq="1" file="e2out.xml" timeThreshold="1.0" speedThreshold="1.39" jamThreshold="10.0"/>
<laneAreaDetector id="e2det_NS015#0#03_1" lane="NS015#0#03_1" endPos="-0.01" length="30" freq="1" file="e2out.xml" timeThreshold="1.0" speedThreshold="1.39" jamThreshold="10.0"/>
<laneAreaDetector id="e2det_NS015#0#03_2" lane="NS015#0#03_2" endPos="-0.01" length="30" freq="1" file="e2out.xml" timeThreshold="1.0" speedThreshold="1.39" jamThreshold="10.0"/>
<laneAreaDetector id="e2det_NS016#0#01_0" lane="NS016#0#01_0" endPos="-0.01" length="30" freq="1" file="e2out.xml" timeThreshold="1.0" speedThreshold="1.39" jamThreshold="10.0"/>
<laneAreaDetector id="e2det_NS016#0#01_1" lane="NS016#0#01_1" endPos="-0.01" length="30" freq="1" file="e2out.xml" timeThreshold="1.0" speedThreshold="1.39" jamThreshold="10.0"/>
<laneAreaDetector id="e2det_NS016#0#02_0" lane="NS016#0#02_0" endPos="-0.01" length="30" freq="1" file="e2out.xml" timeThreshold="1.0" speedThreshold="1.39" jamThreshold="10.0"/>
<laneAreaDetector id="e2det_NS016#0#03_0" lane="NS016#0#03_0" endPos="-0.01" length="30" freq="1" file="e2out.xml" timeThreshold="1.0" speedThreshold="1.39" jamThreshold="10.0"/>
<laneAreaDetector id="e2det_NS016#0#03_1" lane="NS016#0#03_1" endPos="-0.01" length="30" freq="1" file="e2out.xml" timeThreshold="1.0" speedThreshold="1.39" jamThreshold="10.0"/>
<laneAreaDetector id="e2det_NS017#0#01_0" lane="NS017#0#01_0" endPos="-0.01" length="30" freq="1" file="e2out.xml" timeThreshold="1.0" speedThreshold="1.39" jamThreshold="10.0"/>
<laneAreaDetector id="e2det_NS017#0#02_0" lane="NS017#0#02_0" endPos="-0.01" length="30" freq="1" file="e2out.xml" timeThreshold="1.0" speedThreshold="1.39" jamThreshold="10.0"/>
<laneAreaDetector id="e2det_NS017#0#02_1" lane="NS017#0#02_1" endPos="-0.01" length="30" freq="1" file="e2out.xml" timeThreshold="1.0" speedThreshold="1.39" jamThreshold="10.0"/>
<laneAreaDetector id="e2det_NS017#0#03_0" lane="NS017#0#03_0" endPos="-0.01" length="30" freq="1" file="e2out.xml" timeThreshold="1.0" speedThreshold="1.39" jamThreshold="10.0"/>
<laneAreaDetector id="e2det_NS017#0#03_1" lane="NS017#0#03_1" endPos="-0.01" length="30" freq="1" file="e2out.xml" timeThreshold="1.0" speedThreshold="1.39" jamThreshold="10.0"/>
<laneAreaDetector id="e2det_NS018#0#01_0" lane="NS018#0#01_0" endPos="-0.01" length="30" freq="1" file="e2out.xml" timeThreshold="1.0" speedThreshold="1.39" jamThreshold="10.0"/>
<laneAreaDetector id="e2det_NS018#0#02_0" lane="NS018#0#02_0" endPos="-0.01" length="30" freq="1" file="e2out.xml" timeThreshold="1.0" speedThreshold="1.39" jamThreshold="10.0"/>
<laneAreaDetector id="e2det_NS018#0#03_0" lane="NS018#0#03_0" endPos="-0.01" length="30" freq="1" file="e2out.xml" timeThreshold="1.0" speedThreshold="1.39" jamThreshold="10.0"/>
<laneAreaDetector id="e2det_NS019#0#01_0" lane="NS019#0#01_0" endPos="-0.01" length="30" freq="1" file="e2out.xml" timeThreshold="1.0" speedThreshold="1.39" jamThreshold="10.0"/>
<laneAreaDetector id="e2det_NS019#0#02_0" lane="NS019#0#02_0" endPos="-0.01" length="30" freq="1" file="e2out.xml" timeThreshold="1.0" speedThreshold="1.39" jamThreshold="10.0"/>
<laneAreaDetector id="e2det_NS019#0#03_0" lane="NS019#0#03_0" endPos="-0.01" length="30" freq="1" file="e2out.xml" timeThreshold="1.0" speedThreshold="1.39" jamThreshold="10.0"/>
<laneAreaDetector id="e2det_NS020#0#01_0" lane="NS020#0#01_0" endPos="-0.01" length="30" freq="1" file="e2out.xml" timeThreshold="1.0" speedThreshold="1.39" jamThreshold="10.0"/>
<laneAreaDetector id="e2det_NS020#0#01_1" lane="NS020#0#01_1" endPos="-0.01" length="30" freq="1" file="e2out.xml" timeThreshold="1.0" speedThreshold="1.39" jamThreshold="10.0"/>
<laneAreaDetector id="e2det_NS020#0#02_0" lane="NS020#0#02_0" endPos="-0.01" length="30" freq="1" file="e2out.xml" timeThreshold="1.0" speedThreshold="1.39" jamThreshold="10.0"/>
<laneAreaDetector id="e2det_NS020#0#03_0" lane="NS020#0#03_0" endPos="-0.01" length="30" freq="1" file="e2out.xml" timeThreshold="1.0" speedThreshold="1.39" jamThreshold="10.0"/>
<laneAreaDetector id="e2det_NS020#0#03_1" lane="NS020#0#03_1" endPos="-0.01" length="30" freq="1" file="e2out.xml" timeThreshold="1.0" speedThreshold="1.39" jamThreshold="10.0"/>
<laneAreaDetector id="e2det_NS021#0#01_0" lane="NS021#0#01_0" endPos="-0.01" length="30" freq="1" file="e2out.xml" timeThreshold="1.0" speedThreshold="1.39" jamThreshold="10.0"/>
<laneAreaDetector id="e2det_NS021#0#01_1" lane="NS021#0#01_1" endPos="-0.01" length="30" freq="1" file="e2out.xml" timeThreshold="1.0" speedThreshold="1.39" jamThreshold="10.0"/>
<laneAreaDetector id="e2det_NS021#0#01_2" lane="NS021#0#01_2" endPos="-0.01" length="30" freq="1" file="e2out.xml" timeThreshold="1.0" speedThreshold="1.39" jamThreshold="10.0"/>
<laneAreaDetector id="e2det_NS021#0#02_0" lane="NS021#0#02_0" endPos="-0.01" length="30" freq="1" file="e2out.xml" timeThreshold="1.0" speedThreshold="1.39" jamThreshold="10.0"/>
<laneAreaDetector id="e2det_NS021#0#03_0" lane="NS021#0#03_0" endPos="-0.01" length="30" freq="1" file="e2out.xml" timeThreshold="1.0" speedThreshold="1.39" jamThreshold="10.0"/>
<laneAreaDetector id="e2det_NS021#0#03_1" lane="NS021#0#03_1" endPos="-0.01" length="30" freq="1" file="e2out.xml" timeThreshold="1.0" speedThreshold="1.39" jamThreshold="10.0"/>
<laneAreaDetector id="e2det_NS021#0#03_2" lane="NS021#0#03_2" endPos="-0.01" length="30" freq="1" file="e2out.xml" timeThreshold="1.0" speedThreshold="1.39" jamThreshold="10.0"/>
<laneAreaDetector id="e2det_NS021#0#04_0" lane="NS021#0#04_0" endPos="-0.01" length="30" freq="1" file="e2out.xml" timeThreshold="1.0" speedThreshold="1.39" jamThreshold="10.0"/>
<laneAreaDetector id="e2det_NS022#0#01_0" lane="NS022#0#01_0" endPos="-0.01" length="30" freq="1" file="e2out.xml" timeThreshold="1.0" speedThreshold="1.39" jamThreshold="10.0"/>
<laneAreaDetector id="e2det_NS022#0#02_0" lane="NS022#0#02_0" endPos="-0.01" length="30" freq="1" file="e2out.xml" timeThreshold="1.0" speedThreshold="1.39" jamThreshold="10.0"/>
<laneAreaDetector id="e2det_NS022#0#03_0" lane="NS022#0#03_0" endPos="-0.01" length="30" freq="1" file="e2out.xml" timeThreshold="1.0" speedThreshold="1.39" jamThreshold="10.0"/>
</additional>
