<?xml version="1.0" encoding="UTF-8"?>

<!-- generated on 02/04/23 20:08:00 by SUMO duarouter Version 0.32.0
<?xml version="1.0" encoding="UTF-8"?>

<configuration xmlns:xsi="http://www.w3.org/2001/XMLSchema-instance" xsi:noNamespaceSchemaLocation="http://sumo.dlr.de/xsd/duarouterConfiguration.xsd">

    <input>
        <net-file value="data/txmap.net.xml"/>
        <additional-files value="data/txmap.add.xml"/>
        <route-files value="trips.trips.xml"/>
    </input>

    <output>
        <output-file value="data/txmap.rou.xml"/>
        <alternatives-output value="data/txmap.rou.alt.xml"/>
    </output>

    <processing>
        <ignore-errors value="true"/>
    </processing>

    <time>
        <begin value="0"/>
        <end value="3000.0"/>
    </time>

    <report>
        <no-warnings value="true"/>
        <no-step-log value="true"/>
    </report>

</configuration>
-->

<routes xmlns:xsi="http://www.w3.org/2001/XMLSchema-instance" xsi:noNamespaceSchemaLocation="http://sumo.dlr.de/xsd/routes_file.xsd">
    <vType id="typeHeavy1" length="7.10" minGap="1.50" maxSpeed="22.22" probability="0.30" guiShape="truck" width="2.40" height="2.40" color="192,192,192" accel="1.3" decel="4.0" sigma="0.5"/>
    <vehicle id="0" type="typeHeavy1" depart="0.00">
        <route edges="HS002#1#04 gneE95 gneE96"/>
    </vehicle>
    <vType id="typeNormal" length="4.30" minGap="1.20" maxSpeed="27.78" probability="0.90" guiShape="passenger" width="1.80" height="1.50" accel="2.9" decel="7.5" sigma="0.5"/>
    <vehicle id="1" type="typeNormal" depart="0.00">
        <route edges="NS020#0#01 NS017#0#02 NS016#0#01 HS002#0#02 HS002#1#04 gneE95 gneE96 NS022#0#02 NS014#0#01 NS014#1#03 gneE15 NS013#0#02 HS003#0#02 NS012#0#01 HS003#0#03 NS013#0#03 NS013#1#02 gneE14"/>
    </vehicle>
    <vType id="typeLight" length="2.20" minGap="1.00" maxSpeed="25.00" probability="1.00" guiShape="motorcycle" width="0.90" height="1.50" accel="6.0" decel="10.0" sigma="0.6"/>
    <vehicle id="2" type="typeLight" depart="1.00">
        <route edges="NS021#1#02 -117979582#0 -15253153#1 465177314#0 15257902 NS021#0#02 NS021#1#01 gneE19 gneE20 gneE21 HS002#0#03 NS015#0#03 HS001#0#03 HS001#1#04 gneE55"/>
    </vehicle>
    <vehicle id="3" type="typeNormal" depart="2.00">
        <route edges="NS008#0#01"/>
    </vehicle>
    <vehicle id="5" type="typeLight" depart="3.00">
        <route edges="NS019#0#01 NS015#0#02 HS001#0#03 HS001#1#04 gneE55 gneE60 gneE61 gneE62 gneE63 gneE64 gneE65 gneE66 gneE67 gneE68 NS003#0#02 NS007#0#01 NS007#1#03 NS008#0#02 NS009#0#02 NS009#1#01 NS009#0#01 NS008#0#01 NS008#1#02 NS007#0#03 NS003#0#03 NS003#1#02 -gneE68 -gneE67 -gneE66 -gneE65 -gneE64 -gneE63 -gneE62 -gneE61 -gneE60 -gneE55 HS001#0#04"/>
    </vehicle>
    <vehicle id="6" type="typeNormal" depart="4.00">
        <route edges="NS008#0#02 NS009#0#02 NS009#1#01 NS009#0#01 NS008#0#01 NS008#1#02 NS007#0#03 NS003#0#03 NS003#1#02 -gneE68 -gneE67 -gneE66 -gneE65 -gneE64 -gneE63 -gneE62 -gneE61 -gneE60 -gneE55 HS001#0#04 NS015#0#01 NS019#0#03 NS019#1#01"/>
    </vehicle>
    <vehicle id="7" type="typeLight" depart="4.00">
        <route edges="705155959#1 NS022#0#01 NS022#1#02 -gneE96 -gneE95 HS002#0#04 HS002#1#03 -gneE21 -gneE20 -gneE19 NS021#0#01 NS021#1#04 117979582#2 -117979582#4 NS021#0#04 NS021#1#01 gneE19 gneE20 gneE21"/>
    </vehicle>
    <vehicle id="9" type="typeNormal" depart="6.00">
        <route edges="-650246743#2 NS018#0#03 NS018#1#02"/>
    </vehicle>
    <vehicle id="10" type="typeLight" depart="7.00">
        <route edges="NS004#1#02 -gneE92 NS003#0#01 NS003#1#02 -gneE68 -gneE67 -gneE66 -gneE65 -gneE64 -gneE63 -gneE62 -gneE61 -gneE60 -gneE55 HS001#0#04 HS001#1#02 -370567030#2 NS002#0#03 NS002#1#03 370567030#0 HS001#0#02"/>
    </vehicle>
    <vehicle id="11" type="typeNormal" depart="8.00">
        <route edges="NS015#0#03 HS001#0#03 HS001#1#02 -370567030#2 NS002#0#03 NS002#1#03 370567030#0 HS001#0#02 NS015#0#01 HS002#0#01 HS002#1#03 -gneE21 -gneE20"/>
    </vehicle>
    <vehicle id="12" type="typeNormal" depart="8.00">
        <route edges="-gneE64 -gneE63 -gneE62 -gneE61 -gneE60 -gneE55 HS001#0#04 NS015#0#01 HS002#0#01 HS002#1#03 -gneE21 -gneE20"/>
    </vehicle>
    <vehicle id="13" type="typeNormal" depart="9.00">
        <route edges="NS017#0#02 NS019#0#02 NS015#0#02 HS002#0#01 NS016#0#03 NS017#0#03"/>
    </vehicle>
    <vehicle id="16" type="typeLight" depart="10.00">
        <route edges="NS019#0#02 NS015#0#02 HS001#0#03 HS001#1#04 gneE55 gneE60 gneE61 gneE62 gneE63 gneE64 gneE65 gneE66 gneE67 gneE68 NS003#0#02 NS003#1#01 gneE89 NS004#0#02 NS004#1#01 NS004#0#01 NS004#1#02"/>
    </vehicle>
    <vehicle id="17" type="typeHeavy1" depart="11.00">
        <route edges="NS017#0#03 NS019#0#02 NS015#0#02 HS001#0#03 HS001#1#02 -370567030#2 NS002#0#03 NS002#1#01 NS002#0#01"/>
    </vehicle>
    <vehicle id="18" type="typeLight" depart="11.00">
        <route edges="HS001#1#01 gneE31"/>
    </vehicle>
    <vehicle id="19" type="typeNormal" depart="12.00">
        <route edges="-gneE82 -gneE81 NS010#0#03 NS010#1#02 -gneE77 HS004#0#03 NS011#0#01 HS003#0#01 NS013#0#03 NS013#1#02 gneE14 NS014#0#03 NS022#0#03 NS022#1#02 -gneE96 -gneE95"/>
    </vehicle>
    <vehicle id="20" type="typeLight" depart="13.00">
        <route edges="NS015#0#03 HS001#0#03 HS001#1#02 -370567030#2 NS002#0#03 NS002#1#03 370567030#0 HS001#0#02 NS015#0#01 HS002#0#01 HS002#1#04 gneE95 gneE96 NS022#0#02 NS014#0#01 NS014#1#03 gneE15 NS013#0#02 HS003#0#02"/>
    </vehicle>
    <vehicle id="21" type="typeNormal" depart="13.00">
        <route edges="NS005#1#02 gneE3 NS004#0#03 NS004#1#02 -gneE92 NS003#0#01 NS003#1#02 -gneE68 -gneE67 -gneE66 -gneE65 -gneE64 -gneE63 -gneE62 -gneE61 -gneE60 -gneE55 HS001#0#04 NS015#0#01 HS002#0#01 HS002#1#03 -gneE21 -gneE20 -gneE19 NS021#0#01 NS021#1#04 117979582#2 -117979582#4 NS021#0#04 NS021#1#01 gneE19 gneE20"/>
    </vehicle>
    <vehicle id="22" type="typeLight" depart="15.00">
        <route edges="gneE68 NS003#0#02 NS003#1#01 gneE89 NS004#0#02 NS004#1#03 gneE9 NS005#0#02 NS006#0#01 NS006#1#02 NS006#0#02 NS005#0#03 NS005#1#02"/>
    </vehicle>
    <vehicle id="23" type="typeNormal" depart="16.00">
        <route edges="-gneE82 -gneE81 NS010#0#03 NS010#1#02 -gneE77 HS004#0#03 NS008#0#03 NS008#1#02 NS007#0#03 NS003#0#03 NS003#1#02 -gneE68 -gneE67 -gneE66 -gneE65 -gneE64 -gneE63 -gneE62 -gneE61 -gneE60 -gneE55 HS001#0#04 HS001#1#02 -370567030#2 NS002#0#03 NS002#1#03 370567030#0 HS001#0#02 HS001#1#04"/>
    </vehicle>
    <vType id="typeHeavy2" length="12.00" minGap="1.50" maxSpeed="19.44" probability="0.20" guiShape="bus" width="2.50" height="3.40" color="173,255,47" accel="1.2" decel="4.0" sigma="0.5"/>
    <vehicle id="24" type="typeHeavy2" depart="16.00">
        <route edges="-gneE20 -gneE19 NS021#0#01 NS021#1#04 117979582#2 -117979582#4 NS021#0#04 NS021#1#01 gneE19 gneE20 gneE21 HS002#0#03 NS015#0#03 HS001#0#03 HS001#1#04 gneE55 gneE60 gneE61 gneE62 gneE63 gneE64 gneE65 gneE66 gneE67 gneE68 NS003#0#02 NS007#0#01 NS007#1#03 NS008#0#02 NS009#0#02 NS009#1#01 NS009#0#01 NS008#0#01"/>
    </vehicle>
    <vehicle id="25" type="typeHeavy1" depart="17.00">
        <route edges="NS021#0#03 NS021#1#01 gneE19 gneE20 gneE21 HS002#0#03 NS015#0#03 HS001#0#03 HS001#1#04 gneE55 gneE60 gneE61 gneE62 gneE63 gneE64 gneE65 gneE66 gneE67 gneE68 NS003#0#02 NS007#0#01 NS007#1#03 NS008#0#02 HS004#0#01 HS004#1#03 gneE76"/>
    </vehicle>
    <vehicle id="26" type="typeHeavy1" depart="18.00">
        <route edges="NS019#0#01 NS015#0#02 HS001#0#03 HS001#1#02 -370567030#2 NS002#0#03 NS002#1#03"/>
    </vehicle>
    <vehicle id="27" type="typeLight" depart="19.00">
        <route edges="NS017#0#01 NS016#0#01 HS002#0#02 NS015#0#03 HS001#0#03 HS001#1#04 gneE55 gneE60 gneE61 gneE62 gneE63 gneE64 gneE65 gneE66 gneE67 gneE68 NS003#0#02 NS007#0#01 NS007#1#03 NS008#0#02 HS004#0#01 HS004#1#03 gneE76 NS010#0#02 NS010#1#03 gneE81 gneE82"/>
    </vehicle>
    <vehicle id="28" type="typeNormal" depart="19.00">
        <route edges="NS008#0#03 NS008#1#02 NS007#0#03 NS003#0#03 NS003#1#02 -gneE68 -gneE67 -gneE66 -gneE65 -gneE64 -gneE63 -gneE62 -gneE61 -gneE60 -gneE55 HS001#0#04 NS015#0#01 HS002#0#01 HS002#1#03 -gneE21 -gneE20 -gneE19 NS021#0#01"/>
    </vehicle>
    <vehicle id="29" type="typeLight" depart="20.00">
        <route edges="NS006#0#01 NS006#1#02 NS006#0#02 NS005#0#03 NS005#1#02 gneE3 NS004#0#03 NS004#1#02 -gneE92 NS003#0#01 NS003#1#02 -gneE68 -gneE67 -gneE66 -gneE65 -gneE64 -gneE63 -gneE62 -gneE61 -gneE60 -gneE55 HS001#0#04 HS001#1#02 -370567030#2 NS002#0#03 NS002#1#03 370567030#0 HS001#0#02 HS001#1#04 gneE55 gneE60 gneE61 gneE62 gneE63 gneE64 gneE65 gneE66 gneE67 gneE68 NS003#0#02 NS003#1#01"/>
    </vehicle>
    <vehicle id="30" type="typeLight" depart="20.00">
        <route edges="NS009#0#01 NS008#0#01 NS008#1#02 NS007#0#03 NS003#0#03 NS003#1#02 -gneE68 -gneE67 -gneE66 -gneE65 -gneE64 -gneE63 -gneE62 -gneE61 -gneE60 -gneE55 HS001#0#04 HS001#1#02 -370567030#2 NS002#0#03 NS002#1#01"/>
    </vehicle>
    <vehicle id="32" type="typeNormal" depart="22.00">
        <route edges="-370567030#2 NS002#0#03 NS002#1#03 370567030#0 HS001#0#02 HS001#1#04 gneE55 gneE60 gneE61 gneE62 gneE63 gneE64 gneE65 gneE66 gneE67 gneE68 NS003#0#02 NS003#1#01 gneE89 NS004#0#02 NS004#1#03 gneE9 NS005#0#02 NS006#0#01 NS006#1#02 NS006#0#02 NS005#0#03 NS005#1#02 gneE3"/>
    </vehicle>
    <vehicle id="33" type="typeLight" depart="23.00">
        <route edges="650246742#0 650246745#0 NS016#0#02 HS002#0#02 NS015#0#03 HS001#0#03 HS001#1#04 gneE55 gneE60 gneE61 gneE62 gneE63 gneE64 gneE65 gneE66 gneE67 gneE68 NS003#0#02 NS003#1#01 gneE89 NS004#0#02 NS004#1#03 gneE9 NS005#0#02"/>
    </vehicle>
    <vehicle id="34" type="typeHeavy2" depart="23.00">
        <route edges="NS016#0#01 HS002#0#02 HS002#1#04 gneE95 gneE96"/>
    </vehicle>
    <vehicle id="36" type="typeNormal" depart="26.00">
        <route edges="NS020#0#03"/>
    </vehicle>
    <vehicle id="37" type="typeLight" depart="27.00">
        <route edges="15202398#3 NS019#0#01 NS015#0#02 HS001#0#03"/>
    </vehicle>
    <vehicle id="39" type="typeLight" depart="29.00">
        <route edges="NS006#0#02 NS005#0#03 NS005#1#02 gneE3 NS004#0#03 NS004#1#02 -gneE92 NS003#0#01 NS003#1#02 -gneE68 -gneE67 -gneE66 -gneE65 -gneE64 -gneE63 -gneE62 -gneE61 -gneE60 -gneE55 HS001#0#04 NS015#0#01 HS002#0#01 HS002#1#03 -gneE21 -gneE20 -gneE19 NS021#0#01 NS021#1#02 -117979582#0 -15253153#1 465177314#0 15257902"/>
    </vehicle>
    <vehicle id="40" type="typeLight" depart="30.00">
        <route edges="NS022#0#01 NS014#0#01 NS014#1#03 gneE15 NS013#0#02 HS003#0#02 NS011#0#03 HS004#0#02 NS008#0#03 NS008#1#02 NS007#0#03 NS003#0#03 NS003#1#02 -gneE68"/>
    </vehicle>
    <vehicle id="41" type="typeHeavy2" depart="31.00">
        <route edges="HS002#0#04 NS016#0#03 NS016#1#02 -650246745#1 -650246743#2 NS018#0#03 NS018#1#03"/>
    </vehicle>
    <vehicle id="42" type="typeLight" depart="31.00">
        <route edges="HS002#0#01 NS016#0#03 NS016#1#02 -650246745#1"/>
    </vehicle>
    <vehicle id="43" type="typeLight" depart="32.00">
        <route edges="NS010#1#02 -gneE77 HS004#0#03 NS008#0#03 NS008#1#02 NS007#0#03 NS003#0#03 NS003#1#02 -gneE68 -gneE67 -gneE66 -gneE65 -gneE64 -gneE63 -gneE62 -gneE61 -gneE60 -gneE55 HS001#0#04 NS015#0#01 NS019#0#03 NS017#0#01 NS016#0#01"/>
    </vehicle>
    <vehicle id="44" type="typeLight" depart="33.00">
        <route edges="HS003#0#03 NS013#0#03 NS013#1#02 gneE14 NS014#0#03 NS022#0#03 NS022#1#02 -gneE96 -gneE95 HS002#0#04 NS015#0#03 HS001#0#03 HS001#1#02 -370567030#2 NS002#0#03 NS002#1#03 370567030#0"/>
    </vehicle>
    <vehicle id="45" type="typeNormal" depart="33.00">
        <route edges="NS006#0#01 NS006#1#02 NS006#0#02 NS005#0#03 NS005#1#02 gneE3 NS004#0#03 NS004#1#02 -gneE92 NS003#0#01 NS003#1#02 -gneE68 -gneE67 -gneE66 -gneE65 -gneE64 -gneE63 -gneE62 -gneE61 -gneE60 -gneE55 HS001#0#04 HS001#1#02 -370567030#2"/>
    </vehicle>
    <vehicle id="46" type="typeLight" depart="34.00">
        <route edges="-117979582#4 NS021#0#04 NS021#1#01 gneE19 gneE20 gneE21 HS002#0#03 NS015#0#03 HS001#0#03 HS001#1#04 gneE55 gneE60 gneE61 gneE62 gneE63 gneE64 gneE65 gneE66 gneE67 gneE68 NS003#0#02 NS007#0#01 NS007#1#03 NS008#0#02 HS004#0#01 HS004#1#03 gneE76 NS010#0#02 NS010#1#03"/>
    </vehicle>
    <vehicle id="47" type="typeHeavy1" depart="35.00">
        <route edges="HS001#0#03 HS001#1#04 gneE55 gneE60 gneE61 gneE62 gneE63 gneE64 gneE65 gneE66 gneE67 gneE68 NS003#0#02 NS007#0#01 NS007#1#03 NS008#0#02 NS009#0#02 NS009#1#01 NS009#0#01 NS008#0#01 NS008#1#02 NS007#0#03 NS003#0#03 NS003#1#02 -gneE68 -gneE67 -gneE66 -gneE65 -gneE64 -gneE63 -gneE62 -gneE61 -gneE60 -gneE55"/>
    </vehicle>
    <vehicle id="48" type="typeLight" depart="36.00">
        <route edges="HS003#0#04 NS013#0#03 NS013#1#02 gneE14 NS014#0#03 NS022#0#03 NS022#1#02 -gneE96 -gneE95 HS002#0#04 HS002#1#03 -gneE21 -gneE20 -gneE19 NS021#0#01 NS021#1#04 117979582#2 -117979582#4 NS021#0#04 NS021#1#01 gneE19 gneE20 gneE21"/>
    </vehicle>
    <vehicle id="49" type="typeNormal" depart="36.00">
        <route edges="318672327 gneE0 -117979582#4 NS021#0#04 NS021#1#01 gneE19 gneE20 gneE21 HS002#0#03 HS002#1#04 gneE95 gneE96 NS022#0#02 NS014#0#01 NS014#1#03 NS014#0#03 NS022#0#03 NS022#1#02 -gneE96 -gneE95 HS002#0#04 HS002#1#03 -gneE21 -gneE20 -gneE19 NS021#0#01"/>
    </vehicle>
    <vehicle id="50" type="typeNormal" depart="37.00">
        <route edges="NS016#0#03 NS017#0#03 NS019#0#02 NS019#1#01"/>
    </vehicle>
    <vehicle id="51" type="typeNormal" depart="37.00">
        <route edges="NS007#1#03 NS008#0#02 HS004#0#01 HS004#1#03"/>
    </vehicle>
    <vehicle id="52" type="typeNormal" depart="38.00">
        <route edges="gneE55 gneE60 gneE61 gneE62 gneE63 gneE64 gneE65 gneE66 gneE67 gneE68 NS003#0#02 NS007#0#01 NS007#1#03 NS008#0#02 HS004#0#01 HS004#1#03 gneE76 NS010#0#02"/>
    </vehicle>
    <vehicle id="53" type="typeHeavy2" depart="38.00">
        <route edges="-650246743#2 NS018#0#03 NS018#1#03 650246742#0 650246745#0 NS016#0#02 HS002#0#02 HS002#1#03 -gneE21 -gneE20"/>
    </vehicle>
    <vehicle id="54" type="typeHeavy2" depart="39.00">
        <route edges="-gneE21 -gneE20 -gneE19 NS021#0#01 NS021#1#04 117979582#2 -117979582#4 NS021#0#04 NS021#1#01 gneE19 gneE20 gneE21 HS002#0#03 NS015#0#03 HS001#0#03 HS001#1#04 gneE55 gneE60 gneE61 gneE62 gneE63 gneE64 gneE65 gneE66 gneE67 gneE68 NS003#0#02 NS007#0#01 NS007#1#03 NS008#0#02 NS009#0#02"/>
    </vehicle>
    <vehicle id="55" type="typeLight" depart="39.00">
        <route edges="gneE67 gneE68 NS003#0#02 NS007#0#01 NS007#1#03 NS008#0#02 HS004#0#01 NS011#0#01 HS003#0#01 NS013#0#03 NS013#1#02"/>
    </vehicle>
    <vehicle id="56" type="typeNormal" depart="41.00">
        <route edges="gneE61 gneE62 gneE63 gneE64 gneE65 gneE66 gneE67 gneE68 NS003#0#02 NS007#0#01 NS007#1#03 NS008#0#02 NS009#0#02 NS009#1#03"/>
    </vehicle>
    <vehicle id="57" type="typeNormal" depart="42.00">
        <route edges="NS006#0#03 NS005#0#03 NS005#1#02 gneE3 NS004#0#03 NS004#1#02 -gneE92 NS003#0#01 NS003#1#02 -gneE68 -gneE67 -gneE66 -gneE65 -gneE64 -gneE63 -gneE62 -gneE61 -gneE60 -gneE55 HS001#0#04 NS015#0#01 NS019#0#03 NS017#0#01 NS016#0#01 HS002#0#02"/>
    </vehicle>
    <vehicle id="58" type="typeLight" depart="43.00">
        <route edges="HS004#0#01 NS011#0#01 NS011#1#02 NS011#0#02 HS004#0#02 NS008#0#03 NS008#1#02 NS007#0#03 NS003#0#03 NS003#1#02 -gneE68 -gneE67 -gneE66 -gneE65 -gneE64 -gneE63 -gneE62 -gneE61 -gneE60 -gneE55 HS001#0#04 NS015#0#01 HS002#0#01 HS002#1#04"/>
    </vehicle>
    <vehicle id="59" type="typeHeavy2" depart="43.00">
        <route edges="NS007#0#01 NS007#1#03 NS008#0#02 NS009#0#02 NS009#1#01 NS009#0#01 NS008#0#01 NS008#1#02 NS007#0#03 NS003#0#03 NS003#1#02 -gneE68 -gneE67 -gneE66 -gneE65 -gneE64 -gneE63 -gneE62 -gneE61 -gneE60 -gneE55 HS001#0#04 NS015#0#01 HS002#0#01 HS002#1#04 gneE95 gneE96 NS022#0#02 NS014#0#01"/>
    </vehicle>
    <vehicle id="60" type="typeLight" depart="44.00">
        <route edges="gneE96 NS022#0#02 NS014#0#01 NS014#1#03 gneE15 NS013#0#02 NS013#1#01"/>
    </vehicle>
    <vehicle id="61" type="typeNormal" depart="45.00">
        <route edges="NS018#1#01 NS018#0#01 NS018#1#03 650246742#0 650246745#0 NS016#0#02 HS002#0#02 HS002#1#03 -gneE21 -gneE20 -gneE19 NS021#0#01 NS021#1#02 -117979582#0 -15253153#1 465177314#0 15257902"/>
    </vehicle>
    <vehicle id="62" type="typeLight" depart="45.00">
        <route edges="NS019#0#03 NS017#0#01 NS016#0#01 HS002#0#02 HS002#1#03 -gneE21 -gneE20 -gneE19 NS021#0#01 NS021#1#04 117979582#2 -117979582#4 NS021#0#04 NS021#1#01"/>
    </vehicle>
    <vehicle id="63" type="typeLight" depart="47.00">
        <route edges="NS013#0#01 NS013#1#02 gneE14 NS014#0#03 NS022#0#03 NS022#1#02 -gneE96 -gneE95 HS002#0#04 NS015#0#03 HS001#0#03 HS001#1#02 -370567030#2 NS002#0#03 NS002#1#03 370567030#0"/>
    </vehicle>
    <vehicle id="64" type="typeLight" depart="48.00">
        <route edges="NS012#0#03 HS003#0#03 NS013#0#03 NS013#1#02 gneE14 NS014#0#03 NS022#0#03 NS022#1#02 -gneE96 -gneE95 HS002#0#04 HS002#1#03 -gneE21 -gneE20 -gneE19 NS021#0#01 NS021#1#04 117979582#2"/>
    </vehicle>
    <vehicle id="65" type="typeNormal" depart="48.00">
        <route edges="-370567030#2 NS002#0#03 NS002#1#03 370567030#0 HS001#0#02 HS001#1#04 gneE55 gneE60 gneE61 gneE62 gneE63 gneE64 gneE65 gneE66 gneE67 gneE68 NS003#0#02 NS007#0#01 NS007#1#03 NS008#0#02 NS009#0#02 NS009#1#01 NS009#0#01 NS008#0#01 NS008#1#02 NS007#0#03 NS003#0#03"/>
    </vehicle>
    <vehicle id="66" type="typeHeavy2" depart="49.00">
        <route edges="-gneE31 HS001#0#01 NS015#0#01 HS002#0#01 HS002#1#03 -gneE21 -gneE20 -gneE19 NS021#0#01 NS021#1#04 117979582#2 -117979582#4 NS021#0#04 NS021#1#01 gneE19 gneE20 gneE21"/>
    </vehicle>
    <vehicle id="67" type="typeLight" depart="49.00">
        <route edges="gneE20 gneE21 HS002#0#03"/>
    </vehicle>
    <vehicle id="68" type="typeLight" depart="50.00">
        <route edges="NS018#0#03 NS018#1#03 650246742#0 650246745#0 NS016#0#02 HS002#0#02 NS015#0#03 HS001#0#03 HS001#1#04 gneE55 gneE60 gneE61 gneE62 gneE63 gneE64 gneE65 gneE66 gneE67 gneE68 NS003#0#02 NS007#0#01 NS007#1#03 NS008#0#02 NS009#0#02 NS009#1#01 NS009#0#01 NS008#0#01 NS008#1#02 NS007#0#03"/>
    </vehicle>
    <vehicle id="69" type="typeHeavy2" depart="50.00">
        <route edges="NS008#0#02 HS004#0#01 HS004#1#03 gneE76 NS010#0#02 NS010#1#01"/>
    </vehicle>
    <vehicle id="70" type="typeLight" depart="51.00">
        <route edges="gneE61 gneE62 gneE63 gneE64 gneE65 gneE66 gneE67 gneE68 NS003#0#02 NS007#0#01 NS007#1#03 NS008#0#02 HS004#0#01 NS011#0#01 HS003#0#01 NS012#0#01 NS012#1#03"/>
    </vehicle>
    <vehicle id="72" type="typeLight" depart="53.00">
        <route edges="NS008#1#02 NS007#0#03 NS003#0#03 NS003#1#02 -gneE68 -gneE67 -gneE66 -gneE65 -gneE64 -gneE63 -gneE62 -gneE61 -gneE60 -gneE55 HS001#0#04 HS001#1#02 -370567030#2 NS002#0#03 NS002#1#03 370567030#0 HS001#0#02 HS001#1#04 gneE55"/>
    </vehicle>
    <vehicle id="73" type="typeNormal" depart="54.00">
        <route edges="-gneE60 -gneE55 HS001#0#04 NS015#0#01 HS002#0#01 HS002#1#04 gneE95 gneE96 NS022#0#02 NS014#0#01 NS014#1#02"/>
    </vehicle>
    <vehicle id="74" type="typeLight" depart="54.00">
        <route edges="NS007#0#02 NS007#1#03 NS008#0#02 HS004#0#01 HS004#1#03 gneE76 NS010#0#02"/>
    </vehicle>
    <vehicle id="75" type="typeLight" depart="55.00">
        <route edges="-gneE50 NS020#0#02 NS017#0#02 NS016#0#01 HS002#0#02 HS002#1#04 gneE95 gneE96 NS022#0#02 NS014#0#01 NS014#1#03 gneE15 NS013#0#02 NS013#1#01 -15255985#0 15255985#0"/>
    </vehicle>
    <vehicle id="76" type="typeLight" depart="55.00">
        <route edges="HS001#0#01 NS015#0#01 HS002#0#01 NS016#0#03 NS016#1#02 -650246745#1 -650246743#2 NS018#0#03 NS018#1#01"/>
    </vehicle>
    <vehicle id="77" type="typeLight" depart="57.00">
        <route edges="-gneE20 -gneE19 NS021#0#01 NS021#1#04 117979582#2 -117979582#4 NS021#0#04 NS021#1#01 gneE19 gneE20 gneE21 HS002#0#03 NS015#0#03 HS001#0#03 HS001#1#04 gneE55 gneE60 gneE61 gneE62 gneE63 gneE64 gneE65 gneE66 gneE67 gneE68 NS003#0#02 NS003#1#01 gneE89 NS004#0#02 NS004#1#03 gneE9"/>
    </vehicle>
    <vehicle id="78" type="typeNormal" depart="57.00">
        <route edges="NS021#0#02 NS021#1#01 gneE19 gneE20 gneE21"/>
    </vehicle>
    <vehicle id="79" type="typeLight" depart="58.00">
        <route edges="HS001#0#03 HS001#1#02 -370567030#2 NS002#0#03 NS002#1#03 370567030#0 HS001#0#02 NS015#0#01 HS002#0#01 HS002#1#04 gneE95 gneE96 NS022#0#02 NS014#0#01 NS014#1#02"/>
    </vehicle>
    <vehicle id="80" type="typeLight" depart="58.00">
        <route edges="171757885#2 NS007#0#02 NS003#0#03 NS003#1#02 -gneE68 -gneE67 -gneE66 -gneE65 -gneE64 -gneE63 -gneE62 -gneE61 -gneE60 -gneE55 HS001#0#04 NS015#0#01 HS002#0#01 NS016#0#03 NS016#1#02 -650246745#1 -650246743#2 NS018#0#03 NS018#1#01"/>
    </vehicle>
    <vehicle id="81" type="typeLight" depart="60.00">
        <route edges="NS011#0#03 HS004#0#02 NS008#0#03 NS008#1#02 NS007#0#03 NS003#0#03 NS003#1#02 -gneE68 -gneE67 -gneE66 -gneE65 -gneE64 -gneE63 -gneE62 -gneE61 -gneE60 -gneE55 HS001#0#04 NS015#0#01 NS019#0#03 NS019#1#01 -15202398#12 15202398#3 NS019#0#01"/>
    </vehicle>
    <vehicle id="82" type="typeNormal" depart="60.00">
        <route edges="gneE61 gneE62 gneE63 gneE64 gneE65 gneE66 gneE67 gneE68 NS003#0#02 NS007#0#01 NS007#1#03 NS008#0#02 HS004#0#01 NS011#0#01 HS003#0#01 NS013#0#03 NS013#1#02 gneE14 NS014#0#03 NS022#0#03 NS022#1#02 -gneE96 -gneE95"/>
    </vehicle>
    <vehicle id="84" type="typeNormal" depart="61.00">
        <route edges="gneE55 gneE60 gneE61 gneE62 gneE63 gneE64 gneE65 gneE66 gneE67 gneE68 NS003#0#02 NS003#1#01 gneE89 NS004#0#02 NS004#1#03"/>
    </vehicle>
    <vehicle id="85" type="typeLight" depart="62.00">
        <route edges="HS002#0#02 NS015#0#03 HS001#0#03 HS001#1#04 gneE55 gneE60 gneE61 gneE62 gneE63 gneE64 gneE65 gneE66 gneE67 gneE68 NS003#0#02 NS007#0#01 NS007#1#03 NS008#0#02 NS009#0#02 NS009#1#03"/>
    </vehicle>
    <vehicle id="86" type="typeNormal" depart="62.00">
        <route edges="NS004#1#03 gneE9 NS005#0#02 NS006#0#01 NS006#1#02 NS006#0#02 NS005#0#03 NS005#1#02 gneE3 NS004#0#03 NS004#1#02 -gneE92 NS003#0#01 NS003#1#02 -gneE68 -gneE67 -gneE66 -gneE65 -gneE64 -gneE63 -gneE62 -gneE61 -gneE60 -gneE55 HS001#0#04 HS001#1#02 -370567030#2 NS002#0#03 NS002#1#01 NS001#0#03"/>
    </vehicle>
    <vehicle id="87" type="typeHeavy1" depart="63.00">
        <route edges="NS021#0#01 NS021#1#04 117979582#2 gneE1 -318672327"/>
    </vehicle>
    <vehicle id="88" type="typeNormal" depart="63.00">
        <route edges="NS006#0#02 NS005#0#03 NS005#1#02 gneE3 NS004#0#03 NS004#1#02 -gneE92 NS003#0#01 NS003#1#02 -gneE68 -gneE67 -gneE66 -gneE65 -gneE64 -gneE63 -gneE62 -gneE61 -gneE60 -gneE55 HS001#0#04 HS001#1#02 -370567030#2 NS002#0#03 NS002#1#02 243478541#2 -318414469 654285496#0 -243478541#2 NS002#0#02"/>
    </vehicle>
    <vehicle id="89" type="typeNormal" depart="64.00">
        <route edges="NS007#0#01 NS007#1#03 NS008#0#02 NS009#0#02 NS009#1#01 NS009#0#01 NS008#0#01 NS008#1#02 NS007#0#03 NS003#0#03 NS003#1#02 -gneE68 -gneE67 -gneE66 -gneE65 -gneE64 -gneE63 -gneE62 -gneE61 -gneE60 -gneE55 HS001#0#04 HS001#1#01"/>
    </vehicle>
    <vehicle id="91" type="typeHeavy2" depart="65.00">
        <route edges="NS021#0#03 NS021#1#01 gneE19 gneE20 gneE21 HS002#0#03 NS015#0#03 HS001#0#03 HS001#1#01 gneE31 gneE32"/>
    </vehicle>
    <vehicle id="92" type="typeLight" depart="67.00">
        <route edges="HS003#0#01 NS012#0#01 HS003#0#03 NS011#0#03 HS004#0#02 NS008#0#03 NS009#0#02"/>
    </vehicle>
    <vehicle id="93" type="typeLight" depart="67.00">
        <route edges="NS021#0#04 NS021#1#01 gneE19 gneE20 gneE21 HS002#0#03 HS002#1#04 gneE95 gneE96 NS022#0#02 NS022#1#01 -705155959#1"/>
    </vehicle>
    <vehicle id="94" type="typeLight" depart="68.00">
        <route edges="gneE95 gneE96 NS022#0#02 NS014#0#01 NS014#1#03 NS014#0#03 NS022#0#03 NS022#1#02 -gneE96 -gneE95 HS002#0#04 NS016#0#03 NS017#0#03 NS019#0#02 NS017#0#01"/>
    </vehicle>
    <vehicle id="95" type="typeHeavy1" depart="69.00">
        <route edges="gneE96 NS022#0#02 NS014#0#01 NS014#1#03 NS014#0#03 NS022#0#03 NS022#1#02 -gneE96 -gneE95 HS002#0#04 NS015#0#03 HS001#0#03"/>
    </vehicle>
    <vehicle id="96" type="typeNormal" depart="70.00">
        <route edges="gneE68 NS003#0#02 NS007#0#01 NS007#1#03 NS008#0#02 NS009#0#02 NS009#1#01 NS009#0#01 NS008#0#01 NS008#1#02 NS007#0#03 NS003#0#03 NS003#1#02 -gneE68 -gneE67 -gneE66 -gneE65 -gneE64 -gneE63 -gneE62 -gneE61 -gneE60 -gneE55 HS001#0#04 NS015#0#01 HS002#0#01 HS002#1#03 -gneE21 -gneE20 -gneE19 NS021#0#01 NS021#1#04 117979582#2 -117979582#4 NS021#0#04 NS021#1#01 gneE19 gneE20 gneE21 HS002#0#03"/>
    </vehicle>
    <vehicle id="97" type="typeHeavy2" depart="71.00">
        <route edges="HS002#0#03 NS015#0#03 HS001#0#03 HS001#1#04 gneE55 gneE60 gneE61 gneE62 gneE63 gneE64"/>
    </vehicle>
    <vehicle id="98" type="typeNormal" depart="72.00">
        <route edges="HS003#0#01 NS013#0#03 NS013#1#02 gneE14 NS014#0#03 NS022#0#03 NS022#1#02 -gneE96 -gneE95 HS002#0#04 HS002#1#03"/>
    </vehicle>
    <vehicle id="100" type="typeNormal" depart="73.00">
        <route edges="gneE61 gneE62 gneE63 gneE64 gneE65 gneE66 gneE67 gneE68 NS003#0#02 NS007#0#01 NS007#1#03 NS008#0#02 NS009#0#02 NS009#1#01 NS009#0#01 NS008#0#01 NS008#1#02 NS007#0#03"/>
    </vehicle>
    <vehicle id="101" type="typeNormal" depart="73.00">
        <route edges="gneE61 gneE62 gneE63 gneE64 gneE65 gneE66 gneE67 gneE68 NS003#0#02 NS007#0#01 NS007#1#03 NS008#0#02 NS009#0#02 NS009#1#01 NS009#0#01 NS008#0#01 NS008#1#02 NS007#0#03 NS003#0#03 NS003#1#02 -gneE68 -gneE67 -gneE66 -gneE65 -gneE64 -gneE63 -gneE62 -gneE61 -gneE60 -gneE55 HS001#0#04 NS015#0#01"/>
    </vehicle>
    <vehicle id="102" type="typeHeavy1" depart="74.00">
        <route edges="NS018#0#02 NS018#1#03 650246742#0 650246745#0 NS016#0#02 HS002#0#02 NS015#0#03 HS001#0#03 HS001#1#04 gneE55 gneE60 gneE61 gneE62 gneE63 gneE64 gneE65 gneE66 gneE67 gneE68 NS003#0#02 NS007#0#01 NS007#1#03 NS008#0#02 NS009#0#02 NS009#1#01 NS009#0#01 NS008#0#01 NS008#1#02 NS007#0#03"/>
    </vehicle>
    <vehicle id="103" type="typeNormal" depart="75.00">
        <route edges="HS001#0#02 NS015#0#01 NS019#0#03 NS015#0#02 HS001#0#03 HS001#1#02 -370567030#2 NS002#0#03 NS002#1#02"/>
    </vehicle>
    <vehicle id="105" type="typeLight" depart="76.00">
        <route edges="NS001#0#02 NS001#1#03 NS002#0#01 NS002#1#03 370567030#0 HS001#0#02 NS015#0#01 HS002#0#01 NS016#0#03 NS017#0#03 NS020#0#03 NS020#1#02 gneE50"/>
    </vehicle>
    <vehicle id="106" type="typeLight" depart="77.00">
        <route edges="NS021#0#04 NS021#1#01 gneE19 gneE20 gneE21 HS002#0#03 NS015#0#03 HS001#0#03 HS001#1#04 gneE55 gneE60 gneE61 gneE62 gneE63 gneE64 gneE65 gneE66 gneE67 gneE68 NS003#0#02 NS007#0#01 NS007#1#03 NS008#0#02 NS009#0#02 NS009#1#01 NS009#0#01 NS008#0#01 NS008#1#02 NS007#0#03 NS003#0#03 NS003#1#02 -gneE68 -gneE67 -gneE66 -gneE65 -gneE64 -gneE63 -gneE62 -gneE61 -gneE60 -gneE55 HS001#0#04"/>
    </vehicle>
    <vehicle id="107" type="typeLight" depart="78.00">
        <route edges="NS021#0#04 NS021#1#01 gneE19 gneE20 gneE21 HS002#0#03 NS015#0#03 HS001#0#03 HS001#1#04 gneE55 gneE60 gneE61 gneE62 gneE63 gneE64 gneE65 gneE66 gneE67 gneE68 NS003#0#02 NS007#0#01 NS007#1#03 NS008#0#02 NS009#0#02 NS009#1#01 NS009#0#01 NS008#0#01 NS008#1#02 NS007#0#03 NS003#0#03 NS003#1#02 -gneE68 -gneE67"/>
    </vehicle>
    <vehicle id="108" type="typeNormal" depart="80.00">
        <route edges="NS006#0#01 NS006#1#02 NS006#0#02 NS005#0#03 NS005#1#02 gneE3 NS004#0#03 NS004#1#02 -gneE92 NS003#0#01 NS003#1#02 -gneE68 -gneE67 -gneE66 -gneE65 -gneE64 -gneE63 -gneE62 -gneE61 -gneE60 -gneE55"/>
    </vehicle>
    <vehicle id="109" type="typeLight" depart="80.00">
        <route edges="NS022#1#01 NS022#0#01 NS022#1#02 -gneE96 -gneE95 HS002#0#04 NS015#0#03 HS001#0#03 HS001#1#02 -370567030#2 NS002#0#03 NS002#1#03 370567030#0 HS001#0#02 NS015#0#01 HS002#0#01 HS002#1#04"/>
    </vehicle>
    <vehicle id="110" type="typeNormal" depart="81.00">
        <route edges="NS020#0#02 NS017#0#02 NS016#0#01 HS002#0#02 NS015#0#03 HS001#0#03 HS001#1#02 -370567030#2 NS002#0#03 NS002#1#01 NS001#0#03 NS001#1#01"/>
    </vehicle>
    <vehicle id="111" type="typeNormal" depart="83.00">
        <route edges="NS019#1#01 -15202398#12 15202398#3 NS019#0#01 NS015#0#02 HS001#0#03 HS001#1#02 -370567030#2"/>
    </vehicle>
    <vehicle id="112" type="typeNormal" depart="83.00">
        <route edges="-gneE82 -gneE81 NS010#0#03 NS010#1#02 -gneE77 HS004#0#03 NS008#0#03 NS008#1#02 NS007#0#03 NS003#0#03 NS003#1#02 -gneE68 -gneE67 -gneE66 -gneE65 -gneE64 -gneE63 -gneE62 -gneE61 -gneE60 -gneE55 HS001#0#04 NS015#0#01 NS019#0#03 NS015#0#02"/>
    </vehicle>
    <vehicle id="113" type="typeLight" depart="84.00">
        <route edges="-gneE21 -gneE20 -gneE19 NS021#0#01 NS021#1#04 117979582#2 -117979582#4 NS021#0#04 NS021#1#01 gneE19 gneE20 gneE21 HS002#0#03 NS015#0#03 HS001#0#03 HS001#1#01 gneE31 gneE32"/>
    </vehicle>
    <vehicle id="114" type="typeNormal" depart="84.00">
        <route edges="NS022#1#01 NS022#0#01 NS022#1#02 -gneE96 -gneE95 HS002#0#04 NS015#0#03 HS001#0#03 HS001#1#01 gneE31 gneE32"/>
    </vehicle>
    <vehicle id="115" type="typeLight" depart="85.00">
        <route edges="650246745#0 NS016#0#02 HS002#0#02 HS002#1#04 gneE95 gneE96 NS022#0#02 NS014#0#01 NS014#1#03 NS014#0#03 NS022#0#03 NS022#1#02 -gneE96 -gneE95 HS002#0#04 NS016#0#03"/>
    </vehicle>
    <vehicle id="116" type="typeNormal" depart="85.00">